<?xml version="1.0" encoding="UTF-8"?>

<!-- generated on Tue Jan 21 22:15:04 2020 by Eclipse SUMO duarouter Version 1.4.0
<configuration xmlns:xsi="http://www.w3.org/2001/XMLSchema-instance" xsi:noNamespaceSchemaLocation="http://sumo.dlr.de/xsd/duarouterConfiguration.xsd">

    <input>
        <net-file value="/Users/charu/Projects/sumo/tools/2020-01-21-22-15-00/osm.net.xml"/>
        <route-files value="/Users/charu/Projects/sumo/tools/2020-01-21-22-15-00/osm.passenger.trips.xml"/>
    </input>

    <output>
        <output-file value="/Users/charu/Projects/sumo/tools/2020-01-21-22-15-00/osm.passenger.trips.xml.tmp"/>
        <write-trips value="true"/>
    </output>

    <time>
        <begin value="0"/>
        <end value="3600.0"/>
    </time>

    <report>
        <no-warnings value="true"/>
        <ignore-errors value="true"/>
        <no-step-log value="true"/>
    </report>

</configuration>
-->

<routes xmlns:xsi="http://www.w3.org/2001/XMLSchema-instance" xsi:noNamespaceSchemaLocation="http://sumo.dlr.de/xsd/routes_file.xsd">
    <vType id="veh_passenger" vClass="passenger"/>
    <trip id="veh0" type="veh_passenger" depart="0.00" departLane="best" from="415822976#0" to="-287318262"/>
    <trip id="veh1" type="veh_passenger" depart="13.95" departLane="best" from="415823001#0-AddedOffRampEdge" to="415823011#3"/>
    <trip id="veh3" type="veh_passenger" depart="41.86" departLane="best" from="341031084#2" to="-287318268#3"/>
    <trip id="veh4" type="veh_passenger" depart="55.81" departLane="best" departSpeed="max" from="28437955" to="415822993#0"/>
    <trip id="veh5" type="veh_passenger" depart="69.77" departLane="best" from="415822976#1" to="415822997#3"/>
    <trip id="veh7" type="veh_passenger" depart="97.68" departLane="best" from="415823011#0" to="-219954442#2"/>
    <trip id="veh8" type="veh_passenger" depart="111.63" departLane="best" from="415823010#0" to="415826205"/>
    <trip id="veh9" type="veh_passenger" depart="125.58" departLane="best" departSpeed="max" from="311338592#0" to="287318251#0"/>
    <trip id="veh10" type="veh_passenger" depart="139.54" departLane="best" from="615027884" to="341031103#0"/>
    <trip id="veh11" type="veh_passenger" depart="153.49" departLane="best" from="-517588559" to="-415826238#2"/>
    <trip id="veh12" type="veh_passenger" depart="167.44" departLane="best" departSpeed="max" from="409235651" to="8969682"/>
    <trip id="veh13" type="veh_passenger" depart="181.40" departLane="best" from="312681607#0" to="415822997#3"/>
    <trip id="veh14" type="veh_passenger" depart="195.35" departLane="best" from="415823011#3" to="415823008"/>
    <trip id="veh16" type="veh_passenger" depart="223.26" departLane="best" departSpeed="max" from="415823001#0" to="-312681604#6"/>
    <trip id="veh17" type="veh_passenger" depart="237.21" departLane="best" from="-517595949#1" to="332625601"/>
    <trip id="veh19" type="veh_passenger" depart="265.12" departLane="best" from="287318268#0" to="761721593"/>
    <trip id="veh20" type="veh_passenger" depart="279.07" departLane="best" from="415822976#1" to="415823007#0"/>
    <trip id="veh21" type="veh_passenger" depart="293.03" departLane="best" from="-761721593" to="409501917"/>
    <trip id="veh22" type="veh_passenger" depart="306.98" departLane="best" from="761721593" to="415823009#0"/>
    <trip id="veh23" type="veh_passenger" depart="320.94" departLane="best" from="415826212" to="417030664#0"/>
    <trip id="veh24" type="veh_passenger" depart="334.89" departLane="best" departSpeed="max" from="311338592#0" to="312681607#0"/>
    <trip id="veh25" type="veh_passenger" depart="348.84" departLane="best" departSpeed="max" from="28437955" to="761721594"/>
    <trip id="veh28" type="veh_passenger" depart="390.70" departLane="best" departSpeed="max" from="409235651" to="312681607#0"/>
    <trip id="veh29" type="veh_passenger" depart="404.66" departLane="best" from="415820038#0" to="61321513#0"/>
    <trip id="veh30" type="veh_passenger" depart="418.61" departLane="best" from="332625702#0" to="311338590#0"/>
    <trip id="veh31" type="veh_passenger" depart="432.57" departLane="best" departSpeed="max" from="-517595950" to="415823008"/>
    <trip id="veh32" type="veh_passenger" depart="446.52" departLane="best" from="415823009#0" to="415820040#0"/>
    <trip id="veh33" type="veh_passenger" depart="460.47" departLane="best" departSpeed="max" from="-415826205" to="409501917"/>
    <trip id="veh34" type="veh_passenger" depart="474.43" departLane="best" from="761721594" to="415822997#3"/>
    <trip id="veh35" type="veh_passenger" depart="488.38" departLane="best" from="75870313" to="517595950"/>
    <trip id="veh36" type="veh_passenger" depart="502.33" departLane="best" from="-287318268#3" to="415826215#0"/>
    <trip id="veh37" type="veh_passenger" depart="516.29" departLane="best" from="287318268#0" to="415823009#0"/>
    <trip id="veh38" type="veh_passenger" depart="530.24" departLane="best" departSpeed="max" from="-517595950" to="415820041#0"/>
    <trip id="veh39" type="veh_passenger" depart="544.19" departLane="best" from="341031104#0" to="8969682"/>
    <trip id="veh40" type="veh_passenger" depart="558.15" departLane="best" departSpeed="max" from="409235651" to="287318255"/>
    <trip id="veh41" type="veh_passenger" depart="572.10" departLane="best" departSpeed="max" from="311338592#0" to="415823009#0"/>
    <trip id="veh43" type="veh_passenger" depart="600.01" departLane="best" from="415823007#0" to="415822997#3"/>
    <trip id="veh44" type="veh_passenger" depart="613.96" departLane="best" from="415823008" to="415822997#3"/>
    <trip id="veh45" type="veh_passenger" depart="627.92" departLane="best" from="-287318262" to="341031097#0"/>
    <trip id="veh46" type="veh_passenger" depart="641.87" departLane="best" from="-311338587#2" to="75870317"/>
    <trip id="veh48" type="veh_passenger" depart="669.78" departLane="best" from="50108418#0" to="761721594"/>
    <trip id="veh49" type="veh_passenger" depart="683.73" departLane="best" departSpeed="max" from="-415826205" to="417030664#0"/>
    <trip id="veh50" type="veh_passenger" depart="697.69" departLane="best" from="415823007#0" to="-75870312#1"/>
    <trip id="veh51" type="veh_passenger" depart="711.64" departLane="best" from="346030106#0" to="415822997#3"/>
    <trip id="veh52" type="veh_passenger" depart="725.59" departLane="best" from="287318262" to="521521365"/>
    <trip id="veh53" type="veh_passenger" depart="739.55" departLane="best" from="341031084#2" to="311338590#0"/>
    <trip id="veh54" type="veh_passenger" depart="753.50" departLane="best" departSpeed="max" from="409235651" to="415826239#0"/>
    <trip id="veh55" type="veh_passenger" depart="767.45" departLane="best" departSpeed="max" from="28437955" to="341031084#2"/>
    <trip id="veh56" type="veh_passenger" depart="781.41" departLane="best" from="761721594" to="415823009#0"/>
    <trip id="veh57" type="veh_passenger" depart="795.36" departLane="best" from="341031097#0" to="415822997#0"/>
    <trip id="veh58" type="veh_passenger" depart="809.32" departLane="best" departSpeed="max" from="-517595950" to="312681603"/>
    <trip id="veh60" type="veh_passenger" depart="837.22" departLane="best" departSpeed="max" from="28437955" to="311338590#0"/>
    <trip id="veh61" type="veh_passenger" depart="851.18" departLane="best" departSpeed="max" from="-415826205" to="415823008"/>
    <trip id="veh62" type="veh_passenger" depart="865.13" departLane="best" departSpeed="max" from="28437955" to="75870309#0"/>
    <trip id="veh63" type="veh_passenger" depart="879.08" departLane="best" from="287318251#0" to="415823011#0"/>
    <trip id="veh64" type="veh_passenger" depart="893.04" departLane="best" departSpeed="max" from="28437955" to="-75870312#1"/>
    <trip id="veh66" type="veh_passenger" depart="920.95" departLane="best" from="415823010#0" to="287318255"/>
    <trip id="veh67" type="veh_passenger" depart="934.90" departLane="best" from="-517588560#2" to="415820041#0"/>
    <trip id="veh68" type="veh_passenger" depart="948.85" departLane="best" from="341031084#2" to="415822976#0"/>
    <trip id="veh69" type="veh_passenger" depart="962.81" departLane="best" from="415823001#0-AddedOffRampEdge" to="415823011#0"/>
    <trip id="veh70" type="veh_passenger" depart="976.76" departLane="best" from="335422597" to="341031103#0"/>
    <trip id="veh71" type="veh_passenger" depart="990.71" departLane="best" departSpeed="max" from="417052875" to="312681606#0"/>
    <trip id="veh72" type="veh_passenger" depart="1004.67" departLane="best" departSpeed="max" from="28437955" to="415822964"/>
    <trip id="veh73" type="veh_passenger" depart="1018.62" departLane="best" from="341031084#2" to="332625601"/>
    <trip id="veh74" type="veh_passenger" depart="1032.57" departLane="best" from="287318253" to="75870315"/>
    <trip id="veh75" type="veh_passenger" depart="1046.53" departLane="best" from="341031097#0" to="517595950"/>
    <trip id="veh76" type="veh_passenger" depart="1060.48" departLane="best" departSpeed="max" from="409235651" to="-335422597"/>
    <trip id="veh77" type="veh_passenger" depart="1074.44" departLane="best" from="8928914" to="517595950"/>
    <trip id="veh79" type="veh_passenger" depart="1102.34" departLane="best" departSpeed="max" from="409235651" to="311338590#0"/>
    <trip id="veh80" type="veh_passenger" depart="1116.30" departLane="best" from="332625702#0" to="-341031067#1"/>
    <trip id="veh81" type="veh_passenger" depart="1130.25" departLane="best" from="312681607#0" to="8969682"/>
    <trip id="veh82" type="veh_passenger" depart="1144.20" departLane="best" from="287318262" to="50108418#0"/>
    <trip id="veh83" type="veh_passenger" depart="1158.16" departLane="best" from="341031104#0" to="415820040#0"/>
    <trip id="veh84" type="veh_passenger" depart="1172.11" departLane="best" from="615027884" to="8969682"/>
    <trip id="veh85" type="veh_passenger" depart="1186.07" departLane="best" departSpeed="max" from="409235651" to="415826212"/>
    <trip id="veh86" type="veh_passenger" depart="1200.02" departLane="best" from="-75870312#1" to="341031067#0"/>
    <trip id="veh89" type="veh_passenger" depart="1241.88" departLane="best" departSpeed="max" from="409235651" to="517595950"/>
    <trip id="veh90" type="veh_passenger" depart="1255.83" departLane="best" from="-75870312#1" to="8969682"/>
    <trip id="veh91" type="veh_passenger" depart="1269.79" departLane="best" from="-415826215#1" to="287318255"/>
    <trip id="veh92" type="veh_passenger" depart="1283.74" departLane="best" from="415820039#0" to="415823011#3"/>
    <trip id="veh93" type="veh_passenger" depart="1297.70" departLane="best" from="287318251#0" to="-61321513#1"/>
    <trip id="veh94" type="veh_passenger" depart="1311.65" departLane="best" from="415820039#0" to="415823008"/>
    <trip id="veh96" type="veh_passenger" depart="1339.56" departLane="best" departSpeed="max" from="409235651" to="761721593"/>
    <trip id="veh97" type="veh_passenger" depart="1353.51" departLane="best" departSpeed="max" from="28437955" to="415826212"/>
    <trip id="veh98" type="veh_passenger" depart="1367.46" departLane="best" from="415822993#0" to="341031084#0"/>
    <trip id="veh99" type="veh_passenger" depart="1381.42" departLane="best" departSpeed="max" from="311338592#0" to="417030664#0"/>
    <trip id="veh100" type="veh_passenger" depart="1395.37" departLane="best" departSpeed="max" from="-415826205" to="415822969"/>
    <trip id="veh101" type="veh_passenger" depart="1409.33" departLane="best" from="8928914" to="8969682"/>
    <trip id="veh102" type="veh_passenger" depart="1423.28" departLane="best" departSpeed="max" from="-415826205" to="311338590#0"/>
    <trip id="veh103" type="veh_passenger" depart="1437.23" departLane="best" from="287318262" to="75870317"/>
    <trip id="veh106" type="veh_passenger" depart="1479.09" departLane="best" from="415826202" to="415826205"/>
    <trip id="veh107" type="veh_passenger" depart="1493.05" departLane="best" from="415820041#0" to="8969682"/>
    <trip id="veh108" type="veh_passenger" depart="1507.00" departLane="best" from="415822976#1" to="-219954442#2"/>
    <trip id="veh109" type="veh_passenger" depart="1520.95" departLane="best" from="415822986#0" to="761721593"/>
    <trip id="veh110" type="veh_passenger" depart="1534.91" departLane="best" departSpeed="max" from="-517595950" to="-517595949#1"/>
    <trip id="veh111" type="veh_passenger" depart="1548.86" departLane="best" departSpeed="max" from="-517595950" to="415822997#3"/>
    <trip id="veh112" type="veh_passenger" depart="1562.82" departLane="best" from="311338587#0" to="415823006"/>
    <trip id="veh113" type="veh_passenger" depart="1576.77" departLane="best" departSpeed="max" from="415823001#0" to="311338587#0"/>
    <trip id="veh114" type="veh_passenger" depart="1590.72" departLane="best" departSpeed="max" from="409235651" to="75870309#0"/>
    <trip id="veh115" type="veh_passenger" depart="1604.68" departLane="best" from="341031084#2" to="332625601"/>
    <trip id="veh116" type="veh_passenger" depart="1618.63" departLane="best" from="-287318262" to="417030664#0"/>
    <trip id="veh117" type="veh_passenger" depart="1632.58" departLane="best" from="-415826212" to="527563839#0"/>
    <trip id="veh118" type="veh_passenger" depart="1646.54" departLane="best" departSpeed="max" from="514431368" to="415822997#3"/>
    <trip id="veh120" type="veh_passenger" depart="1674.45" departLane="best" departSpeed="max" from="311338592#0" to="615027884"/>
    <trip id="veh121" type="veh_passenger" depart="1688.40" departLane="best" from="415823009#0" to="517595950"/>
    <trip id="veh122" type="veh_passenger" depart="1702.35" departLane="best" departSpeed="max" from="514431368" to="311338590#0"/>
    <trip id="veh123" type="veh_passenger" depart="1716.31" departLane="best" from="415823008" to="527563839#0"/>
    <trip id="veh124" type="veh_passenger" depart="1730.26" departLane="best" from="335422597" to="415823008"/>
    <trip id="veh125" type="veh_passenger" depart="1744.21" departLane="best" from="-75870312#1" to="75870317"/>
    <trip id="veh126" type="veh_passenger" depart="1758.17" departLane="best" departSpeed="max" from="417052875" to="8969682"/>
    <trip id="veh127" type="veh_passenger" depart="1772.12" departLane="best" from="415823011#0" to="527563839#0"/>
    <trip id="veh128" type="veh_passenger" depart="1786.08" departLane="best" from="-312681604#6" to="417030664#0"/>
    <trip id="veh129" type="veh_passenger" depart="1800.03" departLane="best" departSpeed="max" from="311338592#0" to="75870317"/>
    <trip id="veh130" type="veh_passenger" depart="1813.98" departLane="best" from="415823010#0" to="517595950"/>
    <trip id="veh131" type="veh_passenger" depart="1827.94" departLane="best" from="415823009#0" to="-517588559"/>
    <trip id="veh132" type="veh_passenger" depart="1841.89" departLane="best" from="50108418#0" to="517595950"/>
    <trip id="veh133" type="veh_passenger" depart="1855.84" departLane="best" from="415823009#0" to="312681603"/>
    <trip id="veh134" type="veh_passenger" depart="1869.80" departLane="best" from="-312681604#6" to="287318262"/>
    <trip id="veh135" type="veh_passenger" depart="1883.75" departLane="best" from="415822976#0" to="415820038#0"/>
    <trip id="veh136" type="veh_passenger" depart="1897.71" departLane="best" from="75870317" to="415822997#3"/>
    <trip id="veh137" type="veh_passenger" depart="1911.66" departLane="best" from="527563839#0" to="-517595949#1"/>
    <trip id="veh138" type="veh_passenger" depart="1925.61" departLane="best" departSpeed="max" from="-517595950" to="415820041#0"/>
    <trip id="veh139" type="veh_passenger" depart="1939.57" departLane="best" departSpeed="max" from="415823001#0" to="341031084#2"/>
    <trip id="veh140" type="veh_passenger" depart="1953.52" departLane="best" from="415820040#0" to="415822997#0"/>
    <trip id="veh142" type="veh_passenger" depart="1981.43" departLane="best" from="287318255" to="415826205"/>
    <trip id="veh143" type="veh_passenger" depart="1995.38" departLane="best" from="-287318262" to="75870317"/>
    <trip id="veh144" type="veh_passenger" depart="2009.34" departLane="best" departSpeed="max" from="409235651" to="415826212"/>
    <trip id="veh145" type="veh_passenger" depart="2023.29" departLane="best" from="415823001#3" to="415823011#0"/>
    <trip id="veh146" type="veh_passenger" depart="2037.24" departLane="best" from="312681605#0" to="-415826212"/>
    <trip id="veh147" type="veh_passenger" depart="2051.20" departLane="best" from="415822986#0" to="341031097#0"/>
    <trip id="veh148" type="veh_passenger" depart="2065.15" departLane="best" departSpeed="max" from="415823001#0" to="341031084#0"/>
    <trip id="veh149" type="veh_passenger" depart="2079.10" departLane="best" departSpeed="max" from="311338592#0" to="415820039#0"/>
    <trip id="veh150" type="veh_passenger" depart="2093.06" departLane="best" from="335422597" to="341031067#0"/>
    <trip id="veh151" type="veh_passenger" depart="2107.01" departLane="best" departSpeed="max" from="-517595950" to="415820040#0"/>
    <trip id="veh152" type="veh_passenger" depart="2120.96" departLane="best" from="527563839#0" to="415823011#3"/>
    <trip id="veh153" type="veh_passenger" depart="2134.92" departLane="best" departSpeed="max" from="514431368" to="415823007#0"/>
    <trip id="veh154" type="veh_passenger" depart="2148.87" departLane="best" departSpeed="max" from="311338592#0" to="415822997#3"/>
    <trip id="veh156" type="veh_passenger" depart="2176.78" departLane="best" from="341031097#0" to="311338590#0"/>
    <trip id="veh158" type="veh_passenger" depart="2204.69" departLane="best" from="-517588559" to="415822997#0"/>
    <trip id="veh159" type="veh_passenger" depart="2218.64" departLane="best" from="415822969" to="341031097#0"/>
    <trip id="veh160" type="veh_passenger" depart="2232.59" departLane="best" from="415823011#0" to="417030664#0"/>
    <trip id="veh161" type="veh_passenger" depart="2246.55" departLane="best" from="415822993#0" to="312681603"/>
    <trip id="veh162" type="veh_passenger" depart="2260.50" departLane="best" from="287318253" to="415822976#1"/>
    <trip id="veh163" type="veh_passenger" depart="2274.46" departLane="best" from="341031084#0" to="415823008"/>
    <trip id="veh164" type="veh_passenger" depart="2288.41" departLane="best" departSpeed="max" from="28437955" to="415826205"/>
    <trip id="veh167" type="veh_passenger" depart="2330.27" departLane="best" from="415823006" to="417030664#0"/>
    <trip id="veh168" type="veh_passenger" depart="2344.22" departLane="best" departSpeed="max" from="-517595950" to="415820040#0"/>
    <trip id="veh169" type="veh_passenger" depart="2358.18" departLane="best" departSpeed="max" from="219954442#0" to="8969682"/>
    <trip id="veh170" type="veh_passenger" depart="2372.13" departLane="best" departSpeed="max" from="409235651" to="-335422597"/>
    <trip id="veh171" type="veh_passenger" depart="2386.09" departLane="best" from="287318253" to="517595950"/>
    <trip id="veh172" type="veh_passenger" depart="2400.04" departLane="best" from="341031104#0" to="50108419#0"/>
    <trip id="veh173" type="veh_passenger" depart="2413.99" departLane="best" from="415822986#0" to="8969682"/>
    <trip id="veh174" type="veh_passenger" depart="2427.95" departLane="best" from="415820039#0" to="8928914"/>
    <trip id="veh176" type="veh_passenger" depart="2455.85" departLane="best" departSpeed="max" from="415823001#0" to="415822993#0"/>
    <trip id="veh177" type="veh_passenger" depart="2469.81" departLane="best" from="415823012" to="415822997#3"/>
    <trip id="veh178" type="veh_passenger" depart="2483.76" departLane="best" departSpeed="max" from="514431368" to="417030664#0"/>
    <trip id="veh179" type="veh_passenger" depart="2497.72" departLane="best" from="346030106#0" to="312681606#0"/>
    <trip id="veh180" type="veh_passenger" depart="2511.67" departLane="best" from="287318253" to="415823009#0"/>
    <trip id="veh181" type="veh_passenger" depart="2525.62" departLane="best" from="415823007#0" to="415822997#3"/>
    <trip id="veh182" type="veh_passenger" depart="2539.58" departLane="best" from="311338587#0" to="341031097#0"/>
    <trip id="veh183" type="veh_passenger" depart="2553.53" departLane="best" departSpeed="max" from="409235651" to="-761721593"/>
    <trip id="veh184" type="veh_passenger" depart="2567.48" departLane="best" departSpeed="max" from="28437955" to="415826202"/>
    <trip id="veh185" type="veh_passenger" depart="2581.44" departLane="best" departSpeed="max" from="415823001#0" to="-341031067#1"/>
    <trip id="veh186" type="veh_passenger" depart="2595.39" departLane="best" from="341031067#0" to="415822997#3"/>
    <trip id="veh187" type="veh_passenger" depart="2609.34" departLane="best" from="341031084#0" to="311338587#0"/>
    <trip id="veh188" type="veh_passenger" depart="2623.30" departLane="best" from="341031084#0" to="75870309#0"/>
    <trip id="veh189" type="veh_passenger" depart="2637.25" departLane="best" from="415820038#0" to="415826205"/>
    <trip id="veh190" type="veh_passenger" depart="2651.21" departLane="best" departSpeed="max" from="417052875" to="417030664#0"/>
    <trip id="veh191" type="veh_passenger" depart="2665.16" departLane="best" from="312681607#0" to="-219954442#2"/>
    <trip id="veh192" type="veh_passenger" depart="2679.11" departLane="best" from="312681603" to="417030664#0"/>
    <trip id="veh193" type="veh_passenger" depart="2693.07" departLane="best" from="415826248#0" to="8969682"/>
    <trip id="veh194" type="veh_passenger" depart="2707.02" departLane="best" departSpeed="max" from="409235651" to="415823006"/>
    <trip id="veh195" type="veh_passenger" depart="2720.97" departLane="best" departSpeed="max" from="28437955" to="311338590#0"/>
    <trip id="veh196" type="veh_passenger" depart="2734.93" departLane="best" from="341031097#0" to="-287318268#3"/>
    <trip id="veh197" type="veh_passenger" depart="2748.88" departLane="best" departSpeed="max" from="311338592#0" to="415823011#3"/>
    <trip id="veh198" type="veh_passenger" depart="2762.84" departLane="best" from="346030106#0" to="-61321513#1"/>
    <trip id="veh199" type="veh_passenger" depart="2776.79" departLane="best" from="332625601" to="415822997#3"/>
    <trip id="veh200" type="veh_passenger" depart="2790.74" departLane="best" from="-335422597" to="415823009#0"/>
    <trip id="veh201" type="veh_passenger" depart="2804.70" departLane="best" departSpeed="max" from="-517595950" to="415822969"/>
    <trip id="veh202" type="veh_passenger" depart="2818.65" departLane="best" departSpeed="max" from="-415826205" to="409501917"/>
    <trip id="veh203" type="veh_passenger" depart="2832.60" departLane="best" departSpeed="max" from="28437955" to="341031097#0"/>
    <trip id="veh204" type="veh_passenger" depart="2846.56" departLane="best" from="415823007#0" to="409501917"/>
    <trip id="veh205" type="veh_passenger" depart="2860.51" departLane="best" from="415823006" to="517595949#0"/>
    <trip id="veh206" type="veh_passenger" depart="2874.47" departLane="best" from="287318255" to="-415826215#1"/>
    <trip id="veh207" type="veh_passenger" depart="2888.42" departLane="best" from="-311338587#2" to="415822997#3"/>
    <trip id="veh208" type="veh_passenger" depart="2902.37" departLane="best" from="8928914" to="341031104#0"/>
    <trip id="veh209" type="veh_passenger" depart="2916.33" departLane="best" from="415822976#1" to="417030664#0"/>
    <trip id="veh210" type="veh_passenger" depart="2930.28" departLane="best" from="415822976#1" to="417030664#0"/>
    <trip id="veh211" type="veh_passenger" depart="2944.23" departLane="best" from="61133260#0" to="287318268#0"/>
    <trip id="veh213" type="veh_passenger" depart="2972.14" departLane="best" departSpeed="max" from="-517595950" to="415823011#0"/>
    <trip id="veh214" type="veh_passenger" depart="2986.10" departLane="best" from="409501917" to="311338590#0"/>
    <trip id="veh215" type="veh_passenger" depart="3000.05" departLane="best" departSpeed="max" from="415823001#0" to="417030664#0"/>
    <trip id="veh216" type="veh_passenger" depart="3014.00" departLane="best" from="415823001#3" to="-517588560#2"/>
    <trip id="veh217" type="veh_passenger" depart="3027.96" departLane="best" from="415823011#3" to="8969682"/>
    <trip id="veh218" type="veh_passenger" depart="3041.91" departLane="best" departSpeed="max" from="-517595950" to="-287318262"/>
    <trip id="veh219" type="veh_passenger" depart="3055.86" departLane="best" departSpeed="max" from="311338592#0" to="415823011#3"/>
    <trip id="veh220" type="veh_passenger" depart="3069.82" departLane="best" from="615027884" to="415820038#0"/>
    <trip id="veh221" type="veh_passenger" depart="3083.77" departLane="best" departSpeed="max" from="415823001#0" to="-415826215#1"/>
    <trip id="veh222" type="veh_passenger" depart="3097.72" departLane="best" departSpeed="max" from="415823001#0" to="415823008"/>
    <trip id="veh223" type="veh_passenger" depart="3111.68" departLane="best" departSpeed="max" from="-517595950" to="417030664#0"/>
    <trip id="veh224" type="veh_passenger" depart="3125.63" departLane="best" departSpeed="max" from="-517595950" to="8969682"/>
    <trip id="veh225" type="veh_passenger" depart="3139.59" departLane="best" from="415823008" to="341031104#0"/>
    <trip id="veh226" type="veh_passenger" depart="3153.54" departLane="best" from="341031084#2" to="346030106#0"/>
    <trip id="veh227" type="veh_passenger" depart="3167.49" departLane="best" departSpeed="max" from="409235651" to="341031103#0"/>
    <trip id="veh228" type="veh_passenger" depart="3181.45" departLane="best" departSpeed="max" from="-517595950" to="8969682"/>
    <trip id="veh229" type="veh_passenger" depart="3195.40" departLane="best" from="415822969" to="517595949#0"/>
    <trip id="veh230" type="veh_passenger" depart="3209.35" departLane="best" departSpeed="max" from="415823001#0" to="415820041#0"/>
    <trip id="veh231" type="veh_passenger" depart="3223.31" departLane="best" from="415823001#0-AddedOffRampEdge" to="8969682"/>
    <trip id="veh232" type="veh_passenger" depart="3237.26" departLane="best" departSpeed="max" from="409235651" to="415822976#1"/>
    <trip id="veh233" type="veh_passenger" depart="3251.22" departLane="best" from="341031097#0" to="415826248#0"/>
    <trip id="veh234" type="veh_passenger" depart="3265.17" departLane="best" from="287318268#0" to="517595950"/>
    <trip id="veh235" type="veh_passenger" depart="3279.12" departLane="best" from="415823012" to="-415826238#2"/>
    <trip id="veh236" type="veh_passenger" depart="3293.08" departLane="best" from="341031104#0" to="415823007#0"/>
    <trip id="veh237" type="veh_passenger" depart="3307.03" departLane="best" from="415826239#0" to="287318255"/>
    <trip id="veh238" type="veh_passenger" depart="3320.98" departLane="best" departSpeed="max" from="28437955" to="50108419#0"/>
    <trip id="veh239" type="veh_passenger" depart="3334.94" departLane="best" departSpeed="max" from="311338592#0" to="527563839#0"/>
    <trip id="veh240" type="veh_passenger" depart="3348.89" departLane="best" departSpeed="max" from="415823001#0" to="332625601"/>
    <trip id="veh241" type="veh_passenger" depart="3362.85" departLane="best" from="-517588559" to="415826212"/>
    <trip id="veh242" type="veh_passenger" depart="3376.80" departLane="best" departSpeed="max" from="415823001#0" to="415823009#0"/>
    <trip id="veh243" type="veh_passenger" depart="3390.75" departLane="best" departSpeed="max" from="409235651" to="50108419#0"/>
    <trip id="veh244" type="veh_passenger" depart="3404.71" departLane="best" from="-517588559" to="311338590#0"/>
    <trip id="veh245" type="veh_passenger" depart="3418.66" departLane="best" departSpeed="max" from="415823001#0" to="341031084#0"/>
    <trip id="veh246" type="veh_passenger" depart="3432.61" departLane="best" from="415820038#0" to="415822976#0"/>
    <trip id="veh247" type="veh_passenger" depart="3446.57" departLane="best" departSpeed="max" from="409235651" to="415820040#0"/>
    <trip id="veh248" type="veh_passenger" depart="3460.52" departLane="best" from="415823001#3" to="341031097#0"/>
    <trip id="veh249" type="veh_passenger" depart="3474.48" departLane="best" departSpeed="max" from="415823001#0" to="312681607#0"/>
    <trip id="veh250" type="veh_passenger" depart="3488.43" departLane="best" from="287318253" to="-61321513#1"/>
    <trip id="veh251" type="veh_passenger" depart="3502.38" departLane="best" departSpeed="max" from="28437955" to="-61321513#1"/>
    <trip id="veh252" type="veh_passenger" depart="3516.34" departLane="best" departSpeed="max" from="219954442#0" to="311338590#0"/>
    <trip id="veh253" type="veh_passenger" depart="3530.29" departLane="best" departSpeed="max" from="409235651" to="415826239#0"/>
    <trip id="veh254" type="veh_passenger" depart="3544.24" departLane="best" from="75870315" to="415822997#3"/>
    <trip id="veh255" type="veh_passenger" depart="3558.20" departLane="best" from="311338590#0" to="-517588559"/>
    <trip id="veh256" type="veh_passenger" depart="3572.15" departLane="best" departSpeed="max" from="28437955" to="312681603"/>
    <trip id="veh257" type="veh_passenger" depart="3586.10" departLane="best" departSpeed="max" from="409235651" to="332625601"/>
</routes>
