<?xml version="1.0" encoding="UTF-8"?>

<!-- generated on Tue Jan 21 22:15:04 2020 by Eclipse SUMO polyconvert Version 1.4.0
<configuration xmlns:xsi="http://www.w3.org/2001/XMLSchema-instance" xsi:noNamespaceSchemaLocation="http://sumo.dlr.de/xsd/polyconvertConfiguration.xsd">

    <input>
        <net-file value="osm.net.xml"/>
        <osm-files value="osm_bbox.osm.xml"/>
        <osm.keep-full-type value="true"/>
        <type-file value="/Users/charu/Projects/sumo/data/typemap/osmPolyconvert.typ.xml"/>
    </input>

    <output>
        <output-file value="osm.poly.xml"/>
    </output>

    <processing>
        <poi-layer-offset value="5"/>
    </processing>

    <report>
        <verbose value="true"/>
    </report>

</configuration>
-->

<additional xmlns:xsi="http://www.w3.org/2001/XMLSchema-instance" xsi:noNamespaceSchemaLocation="http://sumo.dlr.de/xsd/additional_file.xsd">
    <location netOffset="-584781.15,-4135461.93" convBoundary="-2246.89,-1085.27,3439.96,6078.06" origBoundary="-122.067843,37.352208,-122.003034,37.416463" projParameter="+proj=utm +zone=10 +ellps=WGS84 +datum=WGS84 +units=m +no_defs"/>

    <poly id="100228463" type="amenity.restaurant" color="237,199,199" fill="1" layer="-1.00" shape="872.523498,620.553781 881.790977,621.003816 882.225805,612.276034 883.757142,612.347207 884.663943,593.860134 877.591555,593.521358 877.490940,595.561917 870.064583,595.197328 869.448297,607.806710 873.139333,607.988777 872.523498,620.553781"/>
    <poly id="100228463#1" type="building.yes" color="255,230,230" fill="1" layer="-1.00" shape="872.523498,620.553781 881.790977,621.003816 882.225805,612.276034 883.757142,612.347207 884.663943,593.860134 877.591555,593.521358 877.490940,595.561917 870.064583,595.197328 869.448297,607.806710 873.139333,607.988777 872.523498,620.553781"/>
    <poly id="100228465" type="building.yes" color="255,230,230" fill="1" layer="-1.00" shape="771.610889,675.930286 793.772483,676.367973 793.897737,670.189007 800.609056,670.324297 800.737950,663.790309 799.737461,663.768969 799.755631,662.859316 771.883165,662.307679 771.610889,675.930286"/>
    <poly id="100228469" type="building.yes" color="255,230,230" fill="1" layer="-1.00" shape="774.344977,651.070846 778.365102,651.111997 778.331710,655.239218 797.538436,655.391468 797.654432,641.467680 794.953683,641.440028 794.986402,637.379374 797.687152,637.407026 797.984468,601.449238 811.125447,601.561604 811.107270,603.336713 830.535377,603.502398 830.722919,580.869299 831.289637,580.875103 831.322032,576.847733 827.027253,576.814840 827.099757,568.871134 830.323087,568.893053 830.570641,538.671180 834.325284,538.698542 834.356080,535.691951 835.338987,535.702018 835.366611,532.140614 835.030120,532.137168 835.044447,529.873813 832.246257,529.845152 832.273643,527.171393 805.398048,526.951639 805.369302,530.623987 775.332474,530.371962 775.179838,548.744705 779.085011,548.773583 778.936798,565.848188 775.058198,565.819582 774.344977,651.070846"/>
    <poly id="100228472" type="amenity.parking" color="184,184,179" fill="1" layer="-1.00" shape="799.444101,648.309797 810.841614,648.304453 811.160565,640.507513 839.654871,641.742481 847.945400,655.430618 874.004040,638.543826 872.037190,633.441885 877.629535,633.022085 878.522500,627.117281 867.004625,626.766241 868.788557,579.716986 875.409598,571.385466 875.916162,533.188509 876.825742,479.861287 783.222156,481.154993 782.834772,518.998102 845.059151,519.635301 844.517295,549.188423 844.497040,563.268530 833.807924,563.269992 832.316123,604.297330 799.655425,604.317915 799.444101,648.309797"/>
    <poly id="100228475" type="building.yes" color="255,230,230" fill="1" layer="-1.00" shape="811.245376,653.845291 814.121415,652.321360 815.086017,654.117630 823.687459,649.556665 823.869890,649.902497 835.801602,643.567070 836.922633,645.653431 840.048095,643.987820 847.139015,657.208748 830.808565,665.884655 831.495033,667.167680 821.290748,672.588773 811.245376,653.845291"/>
    <poly id="108150553" type="leisure.swimming_pool" color="207,245,201" fill="1" layer="-2.00" shape="1448.693814,400.116314 1447.086378,394.540828 1461.983873,389.246570 1463.389984,391.158428 1464.430629,393.299524 1464.649000,395.310084 1464.380606,398.147793 1463.527500,400.147298 1459.964055,400.465592 1458.681916,398.555013 1448.693814,400.116314"/>
    <poly id="108150557" type="building.apartments" color="255,230,230" fill="1" layer="-1.00" shape="1444.692426,614.586652 1425.598554,539.938088 1445.647694,534.863375 1464.741401,609.511987 1444.692426,614.586652"/>
    <poly id="108150559" type="building.apartments" color="255,230,230" fill="1" layer="-1.00" shape="1403.879450,463.908852 1398.709441,443.106743 1473.201266,424.757337 1478.371219,445.548399 1403.879450,463.908852"/>
    <poly id="108150568" type="building.apartments" color="255,230,230" fill="1" layer="-1.00" shape="1414.828183,368.322053 1409.429431,348.227702 1483.680087,328.444545 1489.087647,348.527943 1414.828183,368.322053"/>
    <poly id="108150573" type="building.apartments" color="255,230,230" fill="1" layer="-1.00" shape="1417.276891,526.770531 1412.130208,506.290424 1458.690717,494.698644 1458.588692,494.287053 1466.544136,492.305351 1466.688834,492.872721 1471.651991,491.647937 1471.507407,491.069473 1486.850099,487.244479 1491.953828,507.579950 1487.310147,508.741445 1487.489004,509.431220 1480.013003,511.295798 1479.851397,510.650584 1469.338955,513.260529 1469.559913,514.161555 1465.431321,515.184133 1465.320670,514.750263 1458.359760,516.475932 1458.538505,517.176800 1453.841590,518.348859 1453.577842,517.303150 1448.001988,518.688057 1448.265737,519.733766 1439.644363,521.886146 1439.499549,521.329871 1428.889385,523.972146 1429.025344,524.528329 1424.310727,525.700222 1424.157859,525.066195 1417.276891,526.770531"/>
    <poly id="108150575" type="building.apartments" color="255,230,230" fill="1" layer="-1.00" shape="1397.846833,433.145082 1379.284804,359.223366 1399.466712,354.194284 1418.037431,428.116138 1397.846833,433.145082"/>
    <poly id="113370104" type="building.yes" color="255,230,230" fill="1" layer="-1.00" shape="841.992252,466.300636 861.732995,466.236579 861.747045,468.322696 872.755408,468.291251 872.677575,441.317055 841.910665,441.412377 841.992252,466.300636"/>
    <poly id="113370107" type="building.yes" color="255,230,230" fill="1" layer="-1.00" shape="1216.893343,264.148279 1238.977145,258.483731 1222.460814,194.724868 1253.273637,186.820086 1251.195470,178.776575 1255.830783,177.581573 1255.225914,175.256365 1263.457608,173.133064 1264.062361,175.469366 1270.961976,173.698516 1270.365737,171.395588 1278.073370,169.422245 1278.822837,172.325914 1299.752636,166.949221 1292.801910,140.137236 1236.557020,154.570662 1238.660976,162.692104 1197.902625,173.157590 1203.141130,193.394376 1198.852221,194.493109 1216.893343,264.148279"/>
    <poly id="115801939" type="building.yes" color="255,230,230" fill="1" layer="-1.00" shape="1231.133903,456.970047 1206.501237,421.199566 1220.548451,407.285943 1253.858485,440.627071 1240.213859,454.145339 1231.133903,456.970047"/>
    <poly id="115803145" type="amenity.parking" color="184,184,179" fill="1" layer="-1.00" shape="989.879900,668.170153 985.920759,604.363084 1203.979315,381.395865 1219.355978,396.655176 1195.460345,420.941753 1256.000462,481.181388 1255.720981,531.563688 1244.989266,542.582130 1210.214292,507.916669 1185.901094,532.365406 1174.880146,537.933017 1118.947278,595.532290 1054.832490,599.655829 1058.290531,658.742165 989.879900,668.170153"/>
    <poly id="132686044" type="amenity.parking" color="184,184,179" fill="1" layer="-1.00" shape="472.339217,487.409656 495.593250,474.565171 495.961697,454.075386 487.910061,451.618792 480.767214,452.966165 465.442384,464.637752 472.339217,487.409656"/>
    <poly id="132686101" type="leisure.dog_park" color="207,245,201" fill="1" layer="-2.00" shape="459.012038,350.087965 492.277856,349.007019 491.919087,291.284145 491.277606,286.451024 471.074378,285.801133 459.012038,350.087965"/>
    <poly id="153293201" type="landuse.residential" color="235,235,227" fill="1" layer="-3.00" shape="986.144989,833.644995 984.609192,824.519740 983.625547,815.954933 982.505434,799.976859 1016.598550,791.472477 1014.433831,779.777675 1006.920598,749.931038 1045.305855,740.006204 1062.438032,736.054581 1074.073748,780.955980 1077.581297,780.026693 1078.046199,782.184017 1225.588455,746.297672 1230.788094,766.822592 1251.032511,761.638482 1282.660281,754.374698 1307.637174,747.996747 1313.683633,749.911997 1320.136670,751.043651 1325.241966,747.179492 1328.765006,741.312919 1361.232109,744.565628 1373.796538,795.435411 1380.103313,826.213108 1496.634389,797.113094 1547.864355,1003.754523 1568.776386,1082.194782 1586.961066,1148.590352 1588.187122,1172.192346 1517.148718,1187.735751 1350.765449,1229.957904 1359.971581,1274.091349 1286.412142,1290.365196 1242.519278,1124.122421 1072.682921,1173.227126 1035.630325,1011.305496 986.144989,833.644995"/>
    <poly id="155103519" type="building.retail" color="255,230,230" fill="1" layer="-1.00" shape="1443.387582,189.899517 1503.765681,128.553492 1518.935490,143.256434 1459.262418,205.796855 1443.387582,189.899517"/>
    <poly id="155103520" type="building.yes" color="255,230,230" fill="1" layer="-1.00" shape="1400.622252,202.595727 1417.904932,185.032034 1433.897463,200.686433 1416.605924,218.250002 1400.622252,202.595727"/>
    <poly id="155375234" type="amenity.car_rental" color="237,199,199" fill="1" layer="-1.00" shape="193.756721,816.652428 190.071293,805.474998 208.721220,799.384528 212.397659,810.572972 193.756721,816.652428"/>
    <poly id="155375234#1" type="building.yes" color="255,230,230" fill="1" layer="-1.00" shape="193.756721,816.652428 190.071293,805.474998 208.721220,799.384528 212.397659,810.572972 193.756721,816.652428"/>
    <poly id="170059114" type="landuse.residential" color="235,235,227" fill="1" layer="-3.00" shape="1619.559441,277.165884 1584.823461,282.476791 1545.211755,277.107884 1367.480379,336.799517 1354.338085,341.069042 1374.821714,422.766334 1416.661493,580.433696 1429.933450,628.814335 1487.932874,625.163141 1630.150062,606.271742 1677.713507,505.405029 1619.559441,277.165884"/>
    <poly id="19447117" type="amenity.parking" color="184,184,179" fill="1" layer="-1.00" shape="335.728734,519.392932 336.364944,501.269235 417.940626,501.811845 443.355420,501.993266 451.396035,502.053060 450.287009,521.359162 442.246413,521.299368 421.729076,521.112392 392.689996,520.283847 387.068067,525.341624 335.492052,524.372437 335.728734,519.392932"/>
    <poly id="19448290" type="amenity.parking" color="184,184,179" fill="1" layer="-1.00" shape="480.819986,198.600510 489.795347,198.214948 493.997096,197.836177 498.110682,202.627049 492.648637,263.175386 491.277606,286.451024 471.074378,285.801133 470.156249,252.516126 472.565688,206.438568 480.819986,198.600510"/>
    <poly id="19448299" type="amenity.parking" color="184,184,179" fill="1" layer="-1.00" shape="290.154314,258.504724 314.811344,247.937506 316.979249,248.991463 319.147266,250.034327 337.228448,290.362207 338.025058,292.145610 310.300909,304.745313 309.227815,302.282267 290.154314,258.504724"/>
    <poly id="19448302" type="leisure.park" color="207,245,201" fill="1" layer="-2.00" shape="327.027088,501.629070 328.350877,525.564616 419.010108,526.343983 420.143268,522.039352 452.793600,519.587237 468.155884,507.705194 495.525391,482.952740 495.593250,474.565171 495.961697,454.075386 501.049857,173.220462 502.216102,138.769492 502.885739,125.217526 503.124754,122.623600 504.534990,73.806348 498.787086,73.814285 495.604224,74.147970 495.897452,41.929406 291.872418,36.588599 291.564927,147.740890 292.804164,168.690844 296.433555,189.742793 305.508661,213.490919 313.229320,235.438882 282.668565,247.410643 293.085589,382.083772 293.572372,396.035864 327.027088,501.629070"/>
    <poly id="202625211" type="amenity.restaurant" color="237,199,199" fill="1" layer="-1.00" shape="538.123235,754.452655 544.885484,746.122326 511.855360,719.921371 505.577284,727.668601 507.307644,729.062111 505.002976,731.879065 507.892434,734.238623 506.533533,737.231661 506.190783,740.445884 506.264663,743.619977 506.861541,746.743928 508.053954,749.652045 510.255699,752.581557 512.299504,754.499760 515.087564,756.381176 518.052015,757.465511 521.118171,758.129252 524.403295,758.162781 527.532771,757.828569 531.097015,756.544574 533.342464,755.191641 536.015413,752.733513 538.123235,754.452655"/>
    <poly id="202625211#1" type="building.yes" color="255,230,230" fill="1" layer="-1.00" shape="538.123235,754.452655 544.885484,746.122326 511.855360,719.921371 505.577284,727.668601 507.307644,729.062111 505.002976,731.879065 507.892434,734.238623 506.533533,737.231661 506.190783,740.445884 506.264663,743.619977 506.861541,746.743928 508.053954,749.652045 510.255699,752.581557 512.299504,754.499760 515.087564,756.381176 518.052015,757.465511 521.118171,758.129252 524.403295,758.162781 527.532771,757.828569 531.097015,756.544574 533.342464,755.191641 536.015413,752.733513 538.123235,754.452655"/>
    <poly id="202625212" type="building.yes" color="255,230,230" fill="1" layer="-1.00" shape="529.958174,641.671410 544.215593,641.717084 544.255436,627.404182 533.460493,627.371658 533.457322,627.682302 529.994822,627.669152 529.958174,641.671410"/>
    <poly id="202625213" type="building.yes" color="255,230,230" fill="1" layer="-1.00" shape="619.679165,711.624428 618.360384,705.486186 620.960231,700.652881 628.083358,698.617504 633.450348,702.045410 635.094355,707.554530 631.639348,713.743849 625.150254,715.264208 619.679165,711.624428"/>
    <poly id="208650761" type="landuse.orchard" color="194,194,130" fill="1" layer="-3.00" shape="686.517398,380.405178 534.877659,482.455567 515.086464,466.642098 497.992035,466.001662 498.382577,380.847045 686.517398,380.405178"/>
    <poly id="215138097" type="building.yes" color="255,230,230" fill="1" layer="-1.00" shape="429.908719,761.182173 429.730249,770.001344 431.054990,771.224269 429.725853,773.906946 430.021437,776.184555 431.092927,777.926391 432.923745,779.021329 434.550872,779.248735 436.724700,778.838171 438.691443,777.892908 439.573576,776.492763 440.133514,774.556745 454.239153,774.700584 454.673754,762.477679 459.889218,762.530869 459.959109,747.863215 458.347536,747.846779 458.621478,731.405912 459.923135,731.419187 460.243160,711.328343 450.476280,711.228740 449.955934,709.281706 448.777049,707.649729 447.265104,706.546944 445.757489,705.888027 443.153149,705.961331 440.537609,707.132985 439.434211,708.519778 438.544379,710.674345 438.845538,713.273783 439.696795,714.902418 440.763849,716.211481 440.387835,721.822014 441.690625,721.724342 441.170765,730.151687 439.541480,730.135074 439.354001,738.099794 439.146128,747.196055 436.976704,747.173935 436.728256,761.118555 429.908719,761.182173"/>
    <poly id="215150956" type="building.yes" color="255,230,230" fill="1" layer="-1.00" shape="144.941650,789.915222 153.166603,817.992943 171.285587,812.729164 169.804804,807.687816 175.649144,805.983024 172.525202,795.321707 171.024128,795.761368 170.099955,792.589735 166.769279,793.554484 164.073287,784.351040 144.941650,789.915222"/>
    <poly id="215179586" type="amenity.car_wash" color="237,199,199" fill="1" layer="-1.00" shape="161.805060,857.658661 190.941100,848.834268 187.682965,837.439271 157.993051,846.735157 161.805060,857.658661"/>
    <poly id="215179586#1" type="building.roof" color="255,230,230" fill="1" layer="-1.00" shape="161.805060,857.658661 190.941100,848.834268 187.682965,837.439271 157.993051,846.735157 161.805060,857.658661"/>
    <poly id="215179590" type="building.yes" color="255,230,230" fill="1" layer="-1.00" shape="155.266757,819.600953 157.049005,825.477531 169.600510,821.688359 167.809302,815.822783 155.266757,819.600953"/>
    <poly id="215179594" type="building.yes" color="255,230,230" fill="1" layer="-1.00" shape="399.099003,783.847076 407.564496,781.292608 400.547073,758.197744 403.753826,757.231825 393.814453,724.531699 376.528156,729.736915 383.477321,752.586956 387.332508,751.427916 388.043940,753.743048 389.793873,753.217196 399.099003,783.847076"/>
    <poly id="215270725" type="amenity.bank" color="237,199,199" fill="1" layer="-1.00" shape="530.500273,840.165952 539.475589,837.982976 539.892140,839.684854 559.644933,834.882414 557.315487,825.382992 545.277349,828.311371 540.261466,807.844276 527.646393,810.899938 524.600274,816.083775 530.500273,840.165952"/>
    <poly id="215270725#1" type="building.yes" color="255,230,230" fill="1" layer="-1.00" shape="530.500273,840.165952 539.475589,837.982976 539.892140,839.684854 559.644933,834.882414 557.315487,825.382992 545.277349,828.311371 540.261466,807.844276 527.646393,810.899938 524.600274,816.083775 530.500273,840.165952"/>
    <poly id="215270726" type="building.yes" color="255,230,230" fill="1" layer="-1.00" shape="308.123755,777.849707 332.122934,769.994294 328.866961,760.141546 320.239375,762.960738 304.867871,767.985875 308.123755,777.849707"/>
    <poly id="215270730" type="landuse.construction" color="194,194,130" fill="1" layer="-3.00" shape="212.147722,741.101011 213.978123,615.096058 419.295573,617.363959 417.566613,716.607435 326.342054,745.458571 346.337518,815.087272 315.949210,825.107799 294.208705,758.113256 282.139665,750.156935 279.660715,744.872400 276.186282,741.685896 212.147722,741.101011"/>
    <poly id="219673936" type="amenity.pharmacy" color="237,199,199" fill="1" layer="-1.00" shape="916.643485,756.150473 939.345611,750.491512 936.275306,739.009359 943.455006,737.507419 937.807267,711.385919 935.780344,709.556548 933.063520,708.507890 929.988614,708.698269 906.043652,713.778641 912.806722,740.821391 916.643485,756.150473"/>
    <poly id="219673936#1" type="building.yes" color="255,230,230" fill="1" layer="-1.00" shape="916.643485,756.150473 939.345611,750.491512 936.275306,739.009359 943.455006,737.507419 937.807267,711.385919 935.780344,709.556548 933.063520,708.507890 929.988614,708.698269 906.043652,713.778641 912.806722,740.821391 916.643485,756.150473"/>
    <poly id="219673937" type="building.yes" color="255,230,230" fill="1" layer="-1.00" shape="698.469286,761.805259 700.948561,772.227190 700.841056,772.348142 704.879589,790.497462 722.606681,786.362609 726.245644,785.567668 723.108989,771.887993 724.432209,771.524280 722.177398,761.670513 706.485492,765.959331 706.166823,763.348607 705.103901,761.640108 702.782583,760.884057 698.469286,761.805259"/>
    <poly id="219673938" type="building.yes" color="255,230,230" fill="1" layer="-1.00" shape="669.557474,770.264043 672.546062,782.843717 679.816374,781.131663 676.836651,768.552077 669.557474,770.264043"/>
    <poly id="219673939" type="building.yes" color="255,230,230" fill="1" layer="-1.00" shape="901.900396,795.721582 907.386170,816.914950 920.553681,813.543749 915.076906,792.339368 901.900396,795.721582"/>
    <poly id="219673941" type="building.yes" color="255,230,230" fill="1" layer="-1.00" shape="676.836651,768.552077 684.799352,766.680673 687.787918,779.260353 679.816374,781.131663 676.836651,768.552077"/>
    <poly id="219673944" type="building.yes" color="255,230,230" fill="1" layer="-1.00" shape="840.559297,881.949332 855.225502,878.360378 847.955987,848.882544 833.289848,852.460417 840.559297,881.949332"/>
    <poly id="219673946" type="amenity.bank" color="237,199,199" fill="1" layer="-1.00" shape="724.583623,758.455215 728.668429,775.539844 732.103964,774.720632 732.197394,775.109934 739.681036,773.322445 739.944976,774.357036 752.746141,771.303595 748.071404,753.025688 724.583623,758.455215"/>
    <poly id="219673946#1" type="building.yes" color="255,230,230" fill="1" layer="-1.00" shape="724.583623,758.455215 728.668429,775.539844 732.103964,774.720632 732.197394,775.109934 739.681036,773.322445 739.944976,774.357036 752.746141,771.303595 748.071404,753.025688 724.583623,758.455215"/>
    <poly id="219673948" type="building.yes" color="255,230,230" fill="1" layer="-1.00" shape="781.741449,746.047214 797.018843,742.464409 797.563854,744.589249 801.396287,759.496595 786.222566,763.335651 781.741449,746.047214"/>
    <poly id="219673950" type="building.yes" color="255,230,230" fill="1" layer="-1.00" shape="887.308163,747.150784 894.370944,775.195197 895.818025,774.843876 896.576919,775.106854 917.708953,769.698035 910.516152,741.385974 887.308163,747.150784"/>
    <poly id="219673952" type="building.yes" color="255,230,230" fill="1" layer="-1.00" shape="907.386170,816.914950 906.223016,817.213702 910.226398,832.699830 924.557039,829.029884 920.553681,813.543749 907.386170,816.914950"/>
    <poly id="219673954" type="building.yes" color="255,230,230" fill="1" layer="-1.00" shape="923.366713,887.247421 904.027135,892.330631 916.262354,938.414085 931.934757,934.280803 928.788468,922.442809 932.455665,921.481814 923.366713,887.247421"/>
    <poly id="219673956" type="building.yes" color="255,230,230" fill="1" layer="-1.00" shape="803.494767,743.096595 806.556049,755.477345 832.338105,748.262964 834.412759,756.672491 802.703008,765.068871 801.396287,759.496595 797.563854,744.589249 803.494767,743.096595"/>
    <poly id="219673956#1" type="shop.tyres" color="237,199,255" fill="1" layer="-1.00" shape="803.494767,743.096595 806.556049,755.477345 832.338105,748.262964 834.412759,756.672491 802.703008,765.068871 801.396287,759.496595 797.563854,744.589249 803.494767,743.096595"/>
    <poly id="219673958" type="building.yes" color="255,230,230" fill="1" layer="-1.00" shape="905.485015,833.916117 913.960326,866.690668 915.585169,866.274600 920.014402,883.407251 935.064124,879.556074 933.726624,874.405091 936.132838,873.786224 924.557039,829.029884 910.226398,832.699830 905.485015,833.916117"/>
    <poly id="219673960" type="building.yes" color="255,230,230" fill="1" layer="-1.00" shape="906.043652,713.778641 895.441196,715.711542 894.289240,717.508317 894.092257,718.582571 880.696203,721.773945 887.308163,747.150784 910.516152,741.385974 912.806722,740.821391 906.043652,713.778641"/>
    <poly id="219673963" type="building.yes" color="255,230,230" fill="1" layer="-1.00" shape="774.206120,747.689894 768.854185,748.855627 766.766938,752.917444 774.002219,779.720802 781.761387,777.836311 774.206120,747.689894"/>
    <poly id="219673965" type="building.yes" color="255,230,230" fill="1" layer="-1.00" shape="896.576919,775.106854 897.360510,778.143987 895.664586,778.581521 900.204589,796.148021 901.900396,795.721582 915.076906,792.339368 917.012476,791.848817 916.697249,790.636164 925.736079,788.321102 921.553577,772.167395 918.552472,772.935505 917.708953,769.698035 896.576919,775.106854"/>
    <poly id="219673967" type="building.yes" color="255,230,230" fill="1" layer="-1.00" shape="571.688061,837.535190 563.287641,803.363745 595.483993,794.971437 600.427758,786.944348 618.419182,797.668976 625.208290,823.979431 599.727934,830.309874 595.054708,837.862617 588.041368,833.496982 571.688061,837.535190"/>
    <poly id="221246276" type="building.yes" color="255,230,230" fill="1" layer="-1.00" shape="678.510521,577.991266 680.751283,577.969794 680.768440,579.756360 688.686149,579.704172 688.698420,581.102342 690.044603,581.093916 690.060289,583.890166 698.934445,583.836673 698.900469,578.499345 708.828601,578.434450 708.797817,574.517391 707.310067,574.513270 707.290638,571.217680 705.926743,571.225921 705.924805,569.683614 698.609452,569.719755 691.798833,569.761063 691.795424,569.228440 678.466514,569.302967 678.510521,577.991266"/>
    <poly id="221246277" type="building.yes" color="255,230,230" fill="1" layer="-1.00" shape="591.473086,526.128683 591.376610,563.320112 596.502693,566.934155 639.488203,567.040472 644.457849,563.429717 644.554221,526.271568 623.566211,526.212433 623.512347,545.351775 623.481517,556.169661 611.977966,556.140894 612.009107,544.424269 612.053764,526.183576 591.473086,526.128683"/>
    <poly id="221246278" type="building.yes" color="255,230,230" fill="1" layer="-1.00" shape="744.334241,691.584409 744.362735,689.665162 746.337369,689.685368 746.615622,669.416560 736.937691,669.273151 736.955854,668.363498 731.412925,668.284595 731.386022,670.048520 727.711474,669.988735 727.595129,678.764162 722.114191,678.685899 716.519370,673.291685 716.793238,653.444466 717.873535,653.455517 717.883295,652.501396 719.494887,652.517881 722.224927,654.875884 722.187244,657.693779 727.340565,657.768690 727.361565,656.581676 731.594091,656.636073 731.567643,658.355620 736.924626,658.432620 736.939497,657.844705 740.277678,657.889957 740.271662,658.477962 743.397325,658.521040 743.401866,658.077262 746.775467,658.122878 747.058488,637.388105 744.800598,637.353905 744.828070,635.534509 739.878399,635.461672 739.847635,637.602807 737.377227,637.566435 737.389827,636.334952 731.528100,636.252789 731.506646,637.484180 728.336700,637.440654 728.367460,635.299519 723.205157,635.235612 723.175873,637.232519 711.700357,637.070752 706.240530,641.852587 706.011174,658.216244 704.364277,658.188304 704.226507,668.195121 705.864547,668.222971 705.742356,684.498959 710.611187,689.009188 722.423117,689.174398 722.392698,691.282250 728.174693,691.363593 728.201254,689.632951 739.313649,689.791028 739.287199,691.510575 744.334241,691.584409"/>
    <poly id="221246280" type="building.yes" color="255,230,230" fill="1" layer="-1.00" shape="713.830350,619.306300 719.249586,624.554472 747.559815,624.744255 747.691392,604.096698 730.025085,603.982516 730.013509,605.979605 727.009191,608.789342 724.343853,608.762075 724.474918,588.158897 729.989055,583.266672 736.177772,583.418753 735.371970,583.410509 735.317719,593.040930 748.095883,593.127293 748.227347,572.490831 720.182591,572.303766 714.097873,576.701955 713.987253,593.577222 712.074468,593.568753 712.016726,603.543101 713.929395,603.562665 713.830350,619.306300"/>
    <poly id="221246283" type="building.yes" color="255,230,230" fill="1" layer="-1.00" shape="660.825807,559.746846 677.199489,559.836568 677.196547,560.990479 689.045098,561.056151 689.060867,559.514025 691.460685,559.527469 691.572821,539.035056 697.018884,539.068557 697.011169,539.822978 696.391318,539.816639 696.372949,543.344850 701.084043,543.370837 701.099918,540.086704 700.382662,540.079369 700.383904,539.091874 705.360765,539.109486 705.245990,560.722528 709.452340,560.743358 709.445759,561.386835 720.054611,561.439871 720.063233,559.731238 736.091572,559.817542 740.367056,555.678247 740.500309,530.536994 730.484704,530.490002 730.454065,536.081868 725.849226,536.056951 725.808378,543.512772 729.784507,543.531257 729.785984,544.252486 728.158822,545.755936 727.449057,545.016366 723.504047,548.881658 716.791610,548.846281 716.863084,536.664051 718.058626,536.665184 718.110585,527.256653 707.953296,527.208239 707.957722,526.775556 679.310333,526.615756 679.261941,536.545816 678.110788,536.534046 678.040505,548.605332 672.488188,548.570757 666.967611,543.698832 666.976004,542.877844 671.208927,542.898927 671.230113,538.227899 670.114267,538.227587 670.133881,535.442794 667.282450,535.424739 667.317697,529.378002 656.877165,529.315659 656.729299,555.044824 660.825807,559.746846"/>
    <poly id="221246285" type="building.yes" color="255,230,230" fill="1" layer="-1.00" shape="545.518907,582.579808 545.172265,608.728570 556.100057,608.762464 556.149452,594.383086 562.541937,589.322192 569.874300,589.352680 569.799559,608.813580 606.054187,608.939767 606.117210,589.767231 613.644496,589.788653 619.811357,593.812786 619.753691,608.990965 631.088811,609.029119 631.182001,583.443638 625.770178,578.328749 595.227327,578.216437 595.153888,597.544205 581.179863,597.490244 581.244415,578.162387 550.418208,578.047346 545.518907,582.579808"/>
    <poly id="221246287" type="building.yes" color="255,230,230" fill="1" layer="-1.00" shape="648.090057,588.431920 648.191893,598.396802 654.276495,598.336942 654.305479,601.566056 657.901270,601.536238 657.921153,603.056537 662.057209,603.021147 662.019023,598.959770 665.968488,603.316330 666.052236,611.583403 645.681789,611.774622 645.780442,621.184693 645.116209,621.189000 645.174741,626.726298 646.591756,626.718590 646.662904,633.620775 645.236923,633.639488 645.344213,643.937294 644.990017,643.933674 645.020262,647.906205 646.676469,647.889846 646.687385,649.421149 655.216356,649.341892 655.207152,648.509629 667.013118,648.397308 667.097203,656.631098 661.929739,661.404854 661.407187,661.410608 661.411122,657.560477 657.133415,657.594419 657.138650,658.814987 653.613723,658.845530 653.637141,661.752814 647.933459,661.805471 648.034621,672.702378 666.855090,672.517513 666.864406,673.338682 672.355563,673.283865 672.346247,672.462696 677.723505,667.957385 677.553996,651.622938 679.555543,651.610116 679.446934,641.445442 678.437247,641.457309 678.394640,636.963158 657.997575,637.165170 657.956204,632.548980 661.392593,632.517534 661.348842,628.134328 657.912451,628.165774 657.869378,623.716001 679.904977,623.497454 679.759438,609.149364 678.298032,609.167709 678.136011,592.966487 679.252977,591.990399 676.192655,589.018778 675.156291,589.906925 673.562155,588.181905 648.090057,588.431920"/>
    <poly id="221246289" type="building.yes" color="255,230,230" fill="1" layer="-1.00" shape="701.777104,666.971746 686.095106,666.811374 685.935941,682.376866 680.693859,682.323264 680.628972,688.669281 686.898213,688.733386 686.889023,689.632035 689.811127,689.661916 689.803072,690.449621 695.638423,690.509296 695.679155,686.526394 698.796067,686.558270 698.809115,685.282410 701.589542,685.310846 701.777104,666.971746"/>