<?xml version="1.0" encoding="UTF-8"?>

<!-- generated on Tue Jan 21 22:15:03 2020 by Eclipse SUMO netconvert Version 1.4.0
<configuration xmlns:xsi="http://www.w3.org/2001/XMLSchema-instance" xsi:noNamespaceSchemaLocation="http://sumo.dlr.de/xsd/netconvertConfiguration.xsd">

    <input>
        <type-files value="/Users/charu/Projects/sumo/data/typemap/osmNetconvert.typ.xml"/>
        <osm-files value="osm_bbox.osm.xml"/>
    </input>

    <output>
        <output-file value="osm.net.xml"/>
        <output.street-names value="true"/>
        <output.original-names value="true"/>
    </output>

    <projection>
        <proj.utm value="true"/>
    </projection>

    <processing>
        <geometry.remove value="true"/>
        <roundabouts.guess value="true"/>
    </processing>

    <tls_building>
        <tls.discard-simple value="true"/>
        <tls.join value="true"/>
        <tls.guess-signals value="true"/>
        <tls.default-type value="actuated"/>
    </tls_building>

    <ramp_guessing>
        <ramps.guess value="true"/>
    </ramp_guessing>

    <edge_removal>
        <keep-edges.by-type value="highway.primary,highway.primary_link,highway.secondary,highway.secondary_link,highway.tertiary,highway.tertiary_link"/>
    </edge_removal>

    <junctions>
        <junctions.join value="true"/>
        <junctions.corner-detail value="5"/>
    </junctions>

    <report>
        <verbose value="true"/>
        <aggregate-warnings value="5"/>
    </report>

</configuration>
-->

<net version="1.3" junctionCornerDetail="5" limitTurnSpeed="5.50" xmlns:xsi="http://www.w3.org/2001/XMLSchema-instance" xsi:noNamespaceSchemaLocation="http://sumo.dlr.de/xsd/net_file.xsd">

    <location netOffset="-584781.15,-4135461.93" convBoundary="0.00,0.00,1562.43,1026.25" origBoundary="-122.042849,37.360928,-122.023711,37.374087" projParameter="+proj=utm +zone=10 +ellps=WGS84 +datum=WGS84 +units=m +no_defs"/>

    <type id="highway.bridleway" priority="1" numLanes="1" speed="2.78" allow="pedestrian" oneway="1" width="2.00"/>
    <type id="highway.bus_guideway" priority="1" numLanes="1" speed="27.78" allow="bus" oneway="1"/>
    <type id="highway.cycleway" priority="1" numLanes="1" speed="8.33" allow="bicycle" oneway="0" width="1.00"/>
    <type id="highway.footway" priority="1" numLanes="1" speed="2.78" allow="pedestrian" oneway="1" width="2.00"/>
    <type id="highway.ford" priority="1" numLanes="1" speed="2.78" allow="army" oneway="0"/>
    <type id="highway.living_street" priority="2" numLanes="1" speed="2.78" disallow="tram rail_urban rail rail_electric rail_fast ship" oneway="0"/>
    <type id="highway.motorway" priority="14" numLanes="2" speed="39.44" allow="private emergency authority army vip passenger hov taxi bus coach delivery truck trailer motorcycle evehicle custom1 custom2" oneway="1"/>
    <type id="highway.motorway_link" priority="9" numLanes="1" speed="22.22" allow="private emergency authority army vip passenger hov taxi bus coach delivery truck trailer motorcycle evehicle custom1 custom2" oneway="1"/>
    <type id="highway.path" priority="1" numLanes="1" speed="2.78" allow="pedestrian bicycle" oneway="1" width="2.00"/>
    <type id="highway.pedestrian" priority="1" numLanes="1" speed="2.78" allow="pedestrian" oneway="1" width="2.00"/>
    <type id="highway.primary" priority="12" numLanes="2" speed="27.78" disallow="tram rail_urban rail rail_electric rail_fast ship" oneway="0"/>
    <type id="highway.primary_link" priority="7" numLanes="1" speed="22.22" disallow="tram rail_urban rail rail_electric rail_fast ship" oneway="0"/>
    <type id="highway.raceway" priority="15" numLanes="2" speed="83.33" allow="vip" oneway="0"/>
    <type id="highway.residential" priority="3" numLanes="1" speed="13.89" disallow="tram rail_urban rail rail_electric rail_fast ship" oneway="0"/>
    <type id="highway.secondary" priority="11" numLanes="1" speed="27.78" disallow="tram rail_urban rail rail_electric rail_fast ship" oneway="0"/>
    <type id="highway.secondary_link" priority="6" numLanes="1" speed="22.22" disallow="tram rail_urban rail rail_electric rail_fast ship" oneway="0"/>
    <type id="highway.service" priority="1" numLanes="1" speed="5.56" allow="pedestrian delivery bicycle" oneway="0"/>
    <type id="highway.stairs" priority="1" numLanes="1" speed="1.39" allow="pedestrian" oneway="1" width="2.00"/>
    <type id="highway.step" priority="1" numLanes="1" speed="1.39" allow="pedestrian" oneway="1" width="2.00"/>
    <type id="highway.steps" priority="1" numLanes="1" speed="1.39" allow="pedestrian" oneway="1" width="2.00"/>
    <type id="highway.tertiary" priority="10" numLanes="1" speed="22.22" disallow="tram rail_urban rail rail_electric rail_fast ship" oneway="0"/>
    <type id="highway.tertiary_link" priority="5" numLanes="1" speed="22.22" disallow="tram rail_urban rail rail_electric rail_fast ship" oneway="0"/>
    <type id="highway.track" priority="1" numLanes="1" speed="5.56" disallow="tram rail_urban rail rail_electric rail_fast ship" oneway="0"/>
    <type id="highway.trunk" priority="13" numLanes="2" speed="27.78" disallow="pedestrian bicycle tram rail_urban rail rail_electric rail_fast ship" oneway="0"/>
    <type id="highway.trunk_link" priority="8" numLanes="1" speed="22.22" disallow="pedestrian bicycle tram rail_urban rail rail_electric rail_fast ship" oneway="0"/>
    <type id="highway.unclassified" priority="4" numLanes="1" speed="13.89" disallow="tram rail_urban rail rail_electric rail_fast ship" oneway="0"/>
    <type id="highway.unsurfaced" priority="1" numLanes="1" speed="8.33" disallow="tram rail_urban rail rail_electric rail_fast ship" oneway="0"/>
    <type id="railway.highspeed" priority="21" numLanes="1" speed="69.44" allow="rail_fast" oneway="1"/>
    <type id="railway.light_rail" priority="19" numLanes="1" speed="27.78" allow="rail_urban" oneway="1"/>
    <type id="railway.preserved" priority="16" numLanes="1" speed="27.78" allow="rail" oneway="1"/>
    <type id="railway.rail" priority="20" numLanes="1" speed="44.44" allow="rail" oneway="1"/>
    <type id="railway.subway" priority="18" numLanes="1" speed="27.78" allow="rail_urban" oneway="1"/>
    <type id="railway.tram" priority="17" numLanes="1" speed="13.89" allow="tram" oneway="1"/>

    <edge id=":1124858355_0" function="internal">
        <lane id=":1124858355_0_0" index="0" disallow="tram rail_urban rail rail_electric rail_fast ship" speed="17.88" length="9.59" shape="645.86,769.80 636.69,771.82"/>
        <lane id=":1124858355_0_1" index="1" disallow="tram rail_urban rail rail_electric rail_fast ship" speed="17.88" length="9.59" shape="645.26,766.66 635.96,768.71"/>
        <lane id=":1124858355_0_2" index="2" disallow="tram rail_urban rail rail_electric rail_fast ship" speed="17.88" length="9.59" shape="644.65,763.52 635.22,765.59"/>
        <lane id=":1124858355_0_3" index="3" disallow="tram rail_urban rail rail_electric rail_fast ship" speed="17.88" length="9.59" shape="644.04,760.38 634.48,762.48"/>
    </edge>
    <edge id=":1124858355_4" function="internal">
        <lane id=":1124858355_4_0" index="0" disallow="tram rail_urban rail rail_electric rail_fast ship" speed="6.58" length="7.92" shape="644.04,760.38 641.94,760.49 640.19,759.94 638.80,758.73 637.75,756.87"/>
    </edge>
    <edge id=":189722624_0" function="internal">
        <lane id=":189722624_0_0" index="0" disallow="tram rail_urban rail rail_electric rail_fast ship" speed="6.17" length="9.05" shape="1221.64,359.32 1219.91,357.45 1218.08,356.70 1216.13,357.07 1214.08,358.57"/>
    </edge>
    <edge id=":189722624_1" function="internal">
        <lane id=":189722624_1_0" index="0" disallow="tram rail_urban rail rail_electric rail_fast ship" speed="7.73" length="14.89" shape="1224.28,357.52 1221.45,354.44 1218.43,353.20 1215.23,353.82 1211.84,356.28"/>
    </edge>
    <edge id=":189722624_2" function="internal">
        <lane id=":189722624_2_0" index="0" disallow="tram rail_urban rail rail_electric rail_fast ship" speed="9.02" length="20.73" shape="1226.92,355.71 1222.98,351.42 1218.78,349.70 1214.32,350.56 1209.61,353.99"/>
    </edge>
    <edge id=":189722624_3" function="internal">
        <lane id=":189722624_3_0" index="0" disallow="tram rail_urban rail rail_electric rail_fast ship" speed="3.65" length="2.53" shape="1226.92,355.71 1226.90,354.27 1227.34,353.49 1227.53,353.46"/>
    </edge>
    <edge id=":189722624_8" function="internal">
        <lane id=":189722624_8_0" index="0" disallow="tram rail_urban rail rail_electric rail_fast ship" speed="3.65" length="2.14" shape="1227.53,353.46 1228.22,353.37 1229.56,353.91"/>
    </edge>
    <edge id=":189722624_4" function="internal">
        <lane id=":189722624_4_0" index="0" disallow="tram rail_urban rail rail_electric rail_fast ship" speed="7.20" length="9.58" shape="1229.90,345.18 1228.49,347.15 1227.96,349.26 1228.32,351.51 1229.56,353.91"/>
    </edge>
    <edge id=":189722624_5" function="internal">
        <lane id=":189722624_5_0" index="0" disallow="tram rail_urban rail rail_electric rail_fast ship" speed="17.88" length="20.67" shape="1229.90,345.18 1225.42,349.38 1222.06,351.94 1218.66,354.47 1214.08,358.57"/>
        <lane id=":189722624_5_1" index="1" disallow="tram rail_urban rail rail_electric rail_fast ship" speed="17.88" length="20.67" shape="1227.61,342.94 1223.15,347.13 1219.80,349.68 1216.41,352.19 1211.84,356.28"/>
        <lane id=":189722624_5_2" index="2" disallow="tram rail_urban rail rail_electric rail_fast ship" speed="17.88" length="20.67" shape="1225.32,340.71 1220.87,344.88 1217.54,347.42 1214.16,349.92 1209.61,353.99"/>
    </edge>
    <edge id=":2011446089_0" function="internal">
        <lane id=":2011446089_0_0" index="0" disallow="tram rail_urban rail rail_electric rail_fast ship" speed="4.35" length="7.56" shape="1328.91,224.37 1325.49,217.63"/>
    </edge>
    <edge id=":2011446089_1" function="internal">
        <lane id=":2011446089_1_0" index="0" disallow="tram rail_urban rail rail_electric rail_fast ship" speed="3.64" length="4.62" shape="1328.91,224.37 1327.74,219.91"/>
    </edge>
    <edge id=":2011446089_2" function="internal">
        <lane id=":2011446089_2_0" index="0" disallow="tram rail_urban rail rail_electric rail_fast ship" speed="17.88" length="14.22" shape="1313.13,225.36 1323.24,215.36"/>
        <lane id=":2011446089_2_1" index="1" disallow="tram rail_urban rail rail_electric rail_fast ship" speed="17.88" length="14.22" shape="1315.38,227.64 1325.49,217.63"/>
        <lane id=":2011446089_2_2" index="2" disallow="tram rail_urban rail rail_electric rail_fast ship" speed="17.88" length="14.22" shape="1317.63,229.91 1327.74,219.91"/>
    </edge>
    <edge id=":202234196_0" function="internal">
        <lane id=":202234196_0_0" index="0" disallow="tram rail_urban rail rail_electric rail_fast ship" speed="22.22" length="8.38" shape="515.72,480.83 513.59,479.56 512.08,478.77 510.49,478.16 508.12,477.41"/>
    </edge>
    <edge id=":202234196_1" function="internal">
        <lane id=":202234196_1_0" index="0" disallow="tram rail_urban rail rail_electric rail_fast ship" speed="22.22" length="9.71" shape="509.06,474.35 512.03,474.76 514.24,474.43 516.35,474.31 519.05,475.37"/>
        <lane id=":202234196_1_1" index="1" disallow="tram rail_urban rail rail_electric rail_fast ship" speed="22.22" length="9.71" shape="509.06,474.35 511.65,475.17 513.40,475.84 515.05,476.70 517.39,478.10"/>
    </edge>
    <edge id=":202234235_0" function="internal">
        <lane id=":202234235_0_0" index="0" disallow="tram rail_urban rail rail_electric rail_fast ship" speed="3.65" length="4.67" shape="468.35,501.77 466.92,502.00 466.08,501.70 465.83,500.84 466.15,499.43"/>
    </edge>
    <edge id=":2306534934_0" function="internal">
        <lane id=":2306534934_0_0" index="0" disallow="tram rail_urban rail rail_electric rail_fast ship" speed="17.88" length="8.21" shape="491.49,562.34 492.19,560.03 492.31,558.34 492.42,556.65 493.12,554.34"/>
        <lane id=":2306534934_0_1" index="1" disallow="tram rail_urban rail rail_electric rail_fast ship" speed="17.88" length="8.21" shape="491.49,562.34 492.65,560.22 493.78,558.96 494.91,557.69 496.07,555.58"/>
        <lane id=":2306534934_0_2" index="2" disallow="tram rail_urban rail rail_electric rail_fast ship" speed="17.88" length="8.21" shape="494.44,563.58 495.60,561.46 496.73,560.20 497.86,558.93 499.02,556.82"/>
        <lane id=":2306534934_0_3" index="3" disallow="tram rail_urban rail rail_electric rail_fast ship" speed="17.88" length="8.21" shape="497.39,564.82 498.55,562.70 499.68,561.44 500.81,560.17 501.97,558.06"/>
    </edge>
    <edge id=":2381451332_0" function="internal">
        <lane id=":2381451332_0_0" index="0" disallow="tram rail_urban rail rail_electric rail_fast ship" speed="3.65" length="4.67" shape="91.20,707.27 91.68,705.91 92.35,705.32 93.23,705.51 94.30,706.47"/>
    </edge>
    <edge id=":247962569_0" function="internal">
        <lane id=":247962569_0_0" index="0" disallow="tram rail_urban rail rail_electric rail_fast ship" speed="17.88" length="11.49" shape="1095.37,479.28 1087.33,487.61"/>
        <lane id=":247962569_0_1" index="1" disallow="tram rail_urban rail rail_electric rail_fast ship" speed="17.88" length="11.49" shape="1093.03,477.10 1085.05,485.36"/>
        <lane id=":247962569_0_2" index="2" disallow="tram rail_urban rail rail_electric rail_fast ship" speed="17.88" length="11.49" shape="1090.69,474.91 1082.77,483.12"/>
    </edge>
    <edge id=":247962569_3" function="internal">
        <lane id=":247962569_3_0" index="0" disallow="tram rail_urban rail rail_electric rail_fast ship" speed="6.70" length="11.35" shape="1082.56,476.28 1085.40,478.48 1086.76,480.72 1086.64,483.02 1085.05,485.36"/>
    </edge>
    <edge id=":247962569_4" function="internal">
        <lane id=":247962569_4_0" index="0" disallow="tram rail_urban rail rail_electric rail_fast ship" speed="5.82" length="8.27" shape="1082.56,476.28 1084.20,477.70 1084.78,479.31 1084.31,481.12 1082.77,483.12"/>
    </edge>
    <edge id=":2493004044_0" function="internal">
        <lane id=":2493004044_0_0" index="0" disallow="tram rail_urban rail rail_electric rail_fast ship" speed="12.30" length="14.53" shape="965.23,706.10 963.56,709.38 962.63,712.80 962.44,716.36 962.98,720.06"/>
    </edge>
    <edge id=":2493004044_1" function="internal">
        <lane id=":2493004044_1_0" index="0" disallow="tram rail_urban rail rail_electric rail_fast ship" speed="15.65" length="14.70" shape="959.65,705.76 962.98,720.06"/>
        <lane id=":2493004044_1_1" index="1" disallow="tram rail_urban rail rail_electric rail_fast ship" speed="15.65" length="14.70" shape="956.53,706.48 959.87,720.81"/>
    </edge>
    <edge id=":26511920_0" function="internal">
        <lane id=":26511920_0_0" index="0" disallow="tram rail_urban rail rail_electric rail_fast ship" speed="21.71" length="1.14" shape="896.19,528.27 896.17,526.95"/>
        <lane id=":26511920_0_1" index="1" disallow="tram rail_urban rail rail_electric rail_fast ship" speed="21.71" length="1.14" shape="899.39,527.92 899.37,526.97"/>
    </edge>
    <edge id=":26511920_2" function="internal">
        <lane id=":26511920_2_0" index="0" disallow="tram rail_urban rail rail_electric rail_fast ship" speed="15.65" length="0.38" shape="905.77,527.02 905.77,527.08 905.77,527.11 905.77,527.15 905.78,527.21"/>
        <lane id=":26511920_2_1" index="1" disallow="tram rail_urban rail rail_electric rail_fast ship" speed="15.65" length="0.38" shape="902.57,527.00 902.57,527.16 902.57,527.28 902.58,527.39 902.60,527.56"/>
    </edge>
    <edge id=":26630560_0" function="internal">
        <lane id=":26630560_0_0" index="0" disallow="tram rail_urban rail rail_electric rail_fast ship" speed="17.88" length="8.44" shape="494.88,645.55 495.17,647.86 496.16,649.32 497.21,650.79 497.66,653.10"/>
        <lane id=":26630560_0_1" index="1" disallow="tram rail_urban rail rail_electric rail_fast ship" speed="17.88" length="8.44" shape="491.70,645.26 491.98,647.62 492.96,649.14 494.01,650.65 494.46,653.03"/>
        <lane id=":26630560_0_2" index="2" disallow="tram rail_urban rail rail_electric rail_fast ship" speed="17.88" length="8.44" shape="488.51,644.96 488.79,647.39 489.77,648.96 490.81,650.52 491.26,652.97"/>
        <lane id=":26630560_0_3" index="3" disallow="tram rail_urban rail rail_electric rail_fast ship" speed="17.88" length="8.44" shape="488.51,644.96 488.06,652.91"/>
        <lane id=":26630560_0_4" index="4" disallow="tram rail_urban rail rail_electric rail_fast ship" speed="17.88" length="8.44" shape="488.51,644.96 487.78,647.40 486.57,648.89 485.41,650.39 484.86,652.84"/>
    </edge>
    <edge id=":26630563_0" function="internal">
        <lane id=":26630563_0_0" index="0" disallow="tram rail_urban rail rail_electric rail_fast ship" speed="6.97" length="11.66" shape="637.68,756.68 636.66,753.07 636.81,750.27 638.12,748.30 640.60,747.15"/>
    </edge>
    <edge id=":26630563_1" function="internal">
        <lane id=":26630563_1_0" index="0" disallow="tram rail_urban rail rail_electric rail_fast ship" speed="6.12" length="8.73" shape="637.68,756.68 637.15,754.39 637.59,752.55 638.99,751.18 641.35,750.26"/>
    </edge>
    <edge id=":26630563_2" function="internal">
        <lane id=":26630563_2_0" index="0" disallow="tram rail_urban rail rail_electric rail_fast ship" speed="17.88" length="11.17" shape="629.01,746.59 639.85,744.04"/>
        <lane id=":26630563_2_1" index="1" disallow="tram rail_urban rail rail_electric rail_fast ship" speed="17.88" length="11.17" shape="629.72,749.71 640.60,747.15"/>
        <lane id=":26630563_2_2" index="2" disallow="tram rail_urban rail rail_electric rail_fast ship" speed="17.88" length="11.17" shape="630.43,752.83 641.35,750.26"/>
    </edge>
    <edge id=":2909477294_0" function="internal">
        <lane id=":2909477294_0_0" index="0" disallow="tram rail_urban rail rail_electric rail_fast ship" speed="15.65" length="8.07" shape="907.52,335.98 907.29,344.10"/>
        <lane id=":2909477294_0_1" index="1" disallow="tram rail_urban rail rail_electric rail_fast ship" speed="15.65" length="8.07" shape="904.32,335.94 904.10,343.96"/>
    </edge>
    <edge id=":2909477294_2" function="internal">
        <lane id=":2909477294_2_0" index="0" disallow="tram rail_urban rail rail_electric rail_fast ship" speed="15.65" length="8.41" shape="897.70,343.68 897.31,341.27 896.26,339.75 895.19,338.23 894.72,335.81"/>
        <lane id=":2909477294_2_1" index="1" disallow="tram rail_urban rail rail_electric rail_fast ship" speed="15.65" length="8.41" shape="900.90,343.82 900.50,341.38 899.46,339.84 898.39,338.30 897.92,335.85"/>
        <lane id=":2909477294_2_2" index="2" disallow="tram rail_urban rail rail_electric rail_fast ship" speed="15.65" length="8.41" shape="900.90,343.82 901.12,335.90"/>
    </edge>
    <edge id=":309334624_0" function="internal">
        <lane id=":309334624_0_0" index="0" disallow="tram rail_urban rail rail_electric rail_fast ship" speed="15.65" length="7.98" shape="908.63,552.84 909.13,555.08 909.87,556.51 910.66,557.94 911.30,560.16"/>
        <lane id=":309334624_0_1" index="1" disallow="tram rail_urban rail rail_electric rail_fast ship" speed="15.65" length="7.98" shape="908.63,552.84 908.64,555.18 908.30,556.79 908.00,558.40 908.15,560.72"/>
        <lane id=":309334624_0_2" index="2" disallow="tram rail_urban rail rail_electric rail_fast ship" speed="15.65" length="7.98" shape="905.45,553.19 905.47,555.59 905.13,557.25 904.84,558.90 905.00,561.28"/>
    </edge>
    <edge id=":309334895_0" function="internal">
        <lane id=":309334895_0_0" index="0" disallow="tram rail_urban rail rail_electric rail_fast ship" speed="17.88" length="6.64" shape="808.83,310.68 810.16,309.57 810.77,308.49 811.33,307.33 812.48,305.98"/>
        <lane id=":309334895_0_1" index="1" disallow="tram rail_urban rail rail_electric rail_fast ship" speed="17.88" length="6.64" shape="808.83,310.68 810.52,309.92 811.84,309.69 813.10,309.38 814.60,308.37"/>
        <lane id=":309334895_0_2" index="2" disallow="tram rail_urban rail rail_electric rail_fast ship" speed="17.88" length="6.64" shape="810.51,313.41 812.34,312.56 813.75,312.26 815.10,311.88 816.73,310.77"/>
        <lane id=":309334895_0_3" index="3" disallow="tram rail_urban rail rail_electric rail_fast ship" speed="17.88" length="6.64" shape="812.18,316.13 814.15,315.20 815.66,314.84 817.10,314.38 818.86,313.16"/>
    </edge>
    <edge id=":309337078_0" function="internal">
        <lane id=":309337078_0_0" index="0" disallow="tram rail_urban rail rail_electric rail_fast ship" speed="17.88" length="8.20" shape="1208.32,331.85 1209.83,329.97 1210.57,328.44 1211.32,326.92 1212.84,325.05"/>
        <lane id=":309337078_0_1" index="1" disallow="tram rail_urban rail rail_electric rail_fast ship" speed="17.88" length="8.20" shape="1210.59,334.10 1212.10,332.22 1212.84,330.70 1213.58,329.18 1215.10,327.31"/>
        <lane id=":309337078_0_2" index="2" disallow="tram rail_urban rail rail_electric rail_fast ship" speed="17.88" length="8.20" shape="1212.86,336.36 1214.37,334.48 1215.10,332.96 1215.84,331.44 1217.36,329.58"/>
    </edge>
    <edge id=":3169507967_0" function="internal">
        <lane id=":3169507967_0_0" index="0" disallow="tram rail_urban rail rail_electric rail_fast ship" speed="13.41" length="8.03" shape="122.08,841.92 120.00,834.16"/>
        <lane id=":3169507967_0_1" index="1" disallow="tram rail_urban rail rail_electric rail_fast ship" speed="13.41" length="8.03" shape="125.17,841.08 123.09,833.34"/>
    </edge>
    <edge id=":3169507967_2" function="internal">
        <lane id=":3169507967_2_0" index="0" disallow="tram rail_urban rail rail_electric rail_fast ship" speed="13.41" length="8.51" shape="129.28,831.71 130.39,833.94 131.84,835.13 133.30,836.32 134.43,838.56"/>
        <lane id=":3169507967_2_1" index="1" disallow="tram rail_urban rail rail_electric rail_fast ship" speed="13.41" length="8.51" shape="126.18,832.52 127.29,834.77 128.75,835.96 130.21,837.16 131.34,839.40"/>
        <lane id=":3169507967_2_2" index="2" disallow="tram rail_urban rail rail_electric rail_fast ship" speed="13.41" length="8.51" shape="126.18,832.52 128.26,840.24"/>
    </edge>
    <edge id=":3169507968_0" function="internal">
        <lane id=":3169507968_0_0" index="0" disallow="tram rail_urban rail rail_electric rail_fast ship" speed="17.88" length="8.65" shape="198.16,892.29 195.96,893.51 194.83,895.02 193.69,896.53 191.50,897.75"/>
        <lane id=":3169507968_0_1" index="1" disallow="tram rail_urban rail rail_electric rail_fast ship" speed="17.88" length="8.65" shape="197.20,889.24 195.00,890.45 193.87,891.97 192.73,893.48 190.53,894.70"/>
        <lane id=":3169507968_0_2" index="2" disallow="tram rail_urban rail rail_electric rail_fast ship" speed="17.88" length="8.65" shape="196.24,886.19 194.04,887.40 192.90,888.91 191.77,890.43 189.57,891.65"/>
        <lane id=":3169507968_0_3" index="3" disallow="tram rail_urban rail rail_electric rail_fast ship" speed="17.88" length="8.65" shape="196.24,886.19 188.60,888.59"/>
        <lane id=":3169507968_0_4" index="4" disallow="tram rail_urban rail rail_electric rail_fast ship" speed="17.88" length="8.65" shape="196.24,886.19 193.74,886.45 191.94,885.86 190.14,885.28 187.64,885.54"/>
    </edge>
    <edge id=":3185489678_0" function="internal">
        <lane id=":3185489678_0_0" index="0" disallow="tram rail_urban rail rail_electric rail_fast ship" speed="17.88" length="8.21" shape="1291.76,279.56 1290.23,281.44 1289.48,282.97 1288.71,284.49 1287.16,286.35"/>
        <lane id=":3185489678_0_1" index="1" disallow="tram rail_urban rail rail_electric rail_fast ship" speed="17.88" length="8.21" shape="1291.76,279.56 1289.88,281.08 1288.36,281.83 1286.82,282.56 1284.93,284.06"/>
        <lane id=":3185489678_0_2" index="2" disallow="tram rail_urban rail rail_electric rail_fast ship" speed="17.88" length="8.21" shape="1289.49,277.30 1287.63,278.81 1286.11,279.55 1284.58,280.28 1282.69,281.77"/>
        <lane id=":3185489678_0_3" index="3" disallow="tram rail_urban rail rail_electric rail_fast ship" speed="17.88" length="8.21" shape="1287.23,275.04 1285.37,276.55 1283.86,277.28 1282.34,278.00 1280.46,279.48"/>
    </edge>
    <edge id=":3185489679_0" function="internal">
        <lane id=":3185489679_0_0" index="0" disallow="tram rail_urban rail rail_electric rail_fast ship" speed="22.22" length="9.15" shape="1241.03,375.27 1238.73,373.68 1236.21,373.89 1233.65,374.12 1231.26,372.54"/>
        <lane id=":3185489679_0_1" index="1" disallow="tram rail_urban rail rail_electric rail_fast ship" speed="22.22" length="9.15" shape="1241.03,375.27 1239.24,373.55 1237.48,372.94 1235.69,372.34 1233.85,370.66"/>
        <lane id=":3185489679_0_2" index="2" disallow="tram rail_urban rail rail_electric rail_fast ship" speed="22.22" length="9.15" shape="1241.03,375.27 1236.43,368.77"/>
    </edge>
    <edge id=":3185489679_3" function="internal">
        <lane id=":3185489679_3_0" index="0" disallow="tram rail_urban rail rail_electric rail_fast ship" speed="22.22" length="8.05" shape="1239.02,366.88 1243.67,373.46"/>
    </edge>
    <edge id=":3185489680_0" function="internal">
        <lane id=":3185489680_0_0" index="0" disallow="tram rail_urban rail rail_electric rail_fast ship" speed="17.88" length="8.20" shape="1155.57,384.49 1157.05,382.61 1157.76,381.09 1158.46,379.56 1159.92,377.66"/>
        <lane id=":3185489680_0_1" index="1" disallow="tram rail_urban rail rail_electric rail_fast ship" speed="17.88" length="8.20" shape="1155.57,384.49 1157.42,382.95 1158.92,382.19 1160.42,381.42 1162.24,379.86"/>
        <lane id=":3185489680_0_2" index="2" disallow="tram rail_urban rail rail_electric rail_fast ship" speed="17.88" length="8.20" shape="1157.86,386.72 1159.72,385.18 1161.23,384.41 1162.73,383.63 1164.56,382.07"/>
        <lane id=":3185489680_0_3" index="3" disallow="tram rail_urban rail rail_electric rail_fast ship" speed="17.88" length="8.20" shape="1160.15,388.96 1162.02,387.40 1163.53,386.63 1165.04,385.84 1166.88,384.27"/>
    </edge>
    <edge id=":3185489681_0" function="internal">
        <lane id=":3185489681_0_0" index="0" disallow="tram rail_urban rail rail_electric rail_fast ship" speed="22.22" length="7.98" shape="1288.64,613.68 1286.69,605.95"/>
    </edge>
    <edge id=":3185489681_1" function="internal">
        <lane id=":3185489681_1_0" index="0" disallow="tram rail_urban rail rail_electric rail_fast ship" speed="22.22" length="8.41" shape="1289.79,605.15 1290.89,607.42 1292.33,608.65 1293.77,609.87 1294.85,612.14"/>
        <lane id=":3185489681_1_1" index="1" disallow="tram rail_urban rail rail_electric rail_fast ship" speed="22.22" length="8.41" shape="1289.79,605.15 1291.75,612.91"/>
    </edge>
    <edge id=":33619225_0" function="internal">
        <lane id=":33619225_0_0" index="0" disallow="tram rail_urban rail rail_electric rail_fast ship" speed="17.88" length="7.68" shape="908.81,209.97 908.13,212.25 907.98,213.92 907.76,215.56 906.85,217.73"/>
        <lane id=":33619225_0_1" index="1" disallow="tram rail_urban rail rail_electric rail_fast ship" speed="17.88" length="7.68" shape="908.81,209.97 907.70,211.99 906.57,213.15 905.38,214.28 904.05,216.19"/>
        <lane id=":33619225_0_2" index="2" disallow="tram rail_urban rail rail_electric rail_fast ship" speed="17.88" length="7.68" shape="905.86,208.74 904.78,210.66 903.69,211.76 902.52,212.83 901.24,214.65"/>
        <lane id=":33619225_0_3" index="3" disallow="tram rail_urban rail rail_electric rail_fast ship" speed="17.88" length="7.68" shape="902.90,207.51 901.87,209.34 900.80,210.37 899.67,211.38 898.44,213.11"/>
    </edge>
    <edge id=":3424258444_0" function="internal">
        <lane id=":3424258444_0_0" index="0" disallow="tram rail_urban rail rail_electric rail_fast ship" speed="17.88" length="8.21" shape="1047.15,495.93 1048.65,494.05 1049.38,492.53 1050.11,491.00 1051.61,489.12"/>
        <lane id=":3424258444_0_1" index="1" disallow="tram rail_urban rail rail_electric rail_fast ship" speed="17.88" length="8.21" shape="1047.15,495.93 1049.01,494.40 1050.52,493.65 1052.04,492.89 1053.89,491.36"/>
        <lane id=":3424258444_0_2" index="2" disallow="tram rail_urban rail rail_electric rail_fast ship" speed="17.88" length="8.21" shape="1049.42,498.18 1051.29,496.65 1052.80,495.89 1054.32,495.14 1056.18,493.60"/>
        <lane id=":3424258444_0_3" index="3" disallow="tram rail_urban rail rail_electric rail_fast ship" speed="17.88" length="8.21" shape="1051.70,500.43 1053.56,498.90 1055.08,498.14 1056.60,497.38 1058.46,495.84"/>
    </edge>
    <edge id=":3482557526_0" function="internal">
        <lane id=":3482557526_0_0" index="0" disallow="tram rail_urban rail rail_electric rail_fast ship" speed="17.88" length="8.19" shape="589.48,781.91 587.22,782.65 585.79,783.53 584.36,784.41 582.10,785.18"/>
        <lane id=":3482557526_0_1" index="1" disallow="tram rail_urban rail rail_electric rail_fast ship" speed="17.88" length="8.19" shape="589.48,781.91 587.10,782.17 585.43,781.97 583.76,781.78 581.39,782.06"/>
        <lane id=":3482557526_0_2" index="2" disallow="tram rail_urban rail rail_electric rail_fast ship" speed="17.88" length="8.19" shape="588.81,778.78 586.42,779.04 584.74,778.84 583.06,778.66 580.68,778.94"/>
        <lane id=":3482557526_0_3" index="3" disallow="tram rail_urban rail rail_electric rail_fast ship" speed="17.88" length="8.19" shape="588.15,775.66 585.74,775.91 584.05,775.72 582.36,775.53 579.97,775.82"/>
        <lane id=":3482557526_0_4" index="4" disallow="tram rail_urban rail rail_electric rail_fast ship" speed="17.88" length="8.19" shape="587.48,772.53 585.06,772.79 583.36,772.59 581.67,772.41 579.26,772.70"/>
    </edge>
    <edge id=":3482557527_0" function="internal">