<?xml version="1.0" encoding="UTF-8"?>
<additional>
    <tlLogic id="189722624" type="actuated" programID="a" offset="0">
        <phase duration="8" state="GGGgGrrr"/>
        <phase duration="5" state="yyyyyrrr"/>
        <phase duration="4" state="rrrrGGGG"/>
        <phase duration="5" state="rrrryyyy"/>
    </tlLogic>
    <tlLogic id="GS_65426754" type="actuated" programID="a" offset="0">
        <phase duration="12" state="GGGr"/>
        <phase duration="5" state="yyyr"/>
        <phase duration="4" state="rrrG"/>
        <phase duration="5" state="rrry"/>
    </tlLogic>
    <tlLogic id="cluster_189722648_26508299_895573293_895573300" type="actuated" programID="a" offset="0">
        <phase duration="4" state="rrrrrGGGGggrrrrrGGGGgg"/>
        <phase duration="4" state="rrrrryyyyggrrrrryyyygg"/>
        <phase duration="7" state="rrrrrrrrrGGrrrrrrrrrGG"/>
        <phase duration="4" state="rrrrrrrrryyrrrrrrrrryy"/>
        <phase duration="4" state="GGGggrrrrrrGGGggrrrrrr"/>
        <phase duration="4" state="yyyggrrrrrryyyggrrrrrr"/>
        <phase duration="4" state="rrrGGrrrrrrrrrGGrrrrrr"/>
        <phase duration="4" state="rrryyrrrrrrrrryyrrrrrr"/>
    </tlLogic>
    <tlLogic id="cluster_191692186_191692199" type="actuated" programID="a" offset="0">
        <phase duration="5" state="rrrrrrrGGGG"/>
        <phase duration="4" state="rrrrrrryyyy"/>
        <phase duration="7" state="GGgGGGgrrrr"/>
        <phase duration="4" state="yyyyyyyrrrr"/>
    </tlLogic>
    <tlLogic id="cluster_26028750_26029622_26030097_26030108" type="actuated" programID="a" offset="0">
        <phase duration="5" state="rrrrrrGGGGggrrrrrrGGGGgg"/>
        <phase duration="4" state="rrrrrryyyyggrrrrrryyyygg"/>
        <phase duration="4" state="rrrrrrrrrrGGrrrrrrrrrrGG"/>
        <phase duration="4" state="rrrrrrrrrryyrrrrrrrrrryy"/>
        <phase duration="4" state="GGGGggrrrrrrGGGGggrrrrrr"/>
        <phase duration="4" state="yyyyggrrrrrryyyyggrrrrrr"/>
        <phase duration="4" state="rrrrGGrrrrrrrrrrGGrrrrrr"/>
        <phase duration="4" state="rrrryyrrrrrrrrrryyrrrrrr"/>
    </tlLogic>
    <tlLogic id="cluster_26630556_26630557" type="actuated" programID="a" offset="0">
        <phase duration="4" state="GGGggrrrrrGGGGg"/>
        <phase duration="5" state="yyyggrrrrryyyyy"/>
        <phase duration="4" state="GGGGGrrrrrrrrrr"/>
        <phase duration="5" state="yyyyyrrrrrrrrrr"/>
        <phase duration="5" state="rrrrrGGGGgGrrrr"/>
        <phase duration="5" state="rrrrryyyyyyrrrr"/>
    </tlLogic>
    <tlLogic id="cluster_60006480_60006482" type="actuated" programID="a" offset="0">
        <phase duration="4" state="rrrGGGGgGGGgg"/>
        <phase duration="4" state="rrryyyyyyyygg"/>
        <phase duration="4" state="rrrrrrrrGGGGG"/>
        <phase duration="4" state="rrrrrrrryyyyy"/>
        <phase duration="5" state="GGGGrrrrrrrrr"/>
        <phase duration="4" state="yyyyrrrrrrrrr"/>
    </tlLogic>
</additional>
