<?xml version="1.0" encoding="UTF-8"?>

<!-- generated on Mon Dec 23 11:55:54 2019 by Eclipse SUMO netconvert Version v1_3_1+0817-d484d16121
<configuration xmlns:xsi="http://www.w3.org/2001/XMLSchema-instance" xsi:noNamespaceSchemaLocation="http://sumo.dlr.de/xsd/netconvertConfiguration.xsd">

    <input>
        <type-files value="/home/charu/Projects/sumo/data/typemap/osmNetconvert.typ.xml"/>
        <osm-files value="osm_bbox.osm.xml"/>
    </input>

    <output>
        <output-file value="osm.net.xml"/>
        <output.street-names value="true"/>
        <output.original-names value="true"/>
        <ptstop-output value="osm_stops.add.xml"/>
        <ptline-output value="osm_ptlines.xml"/>
    </output>

    <projection>
        <proj.utm value="true"/>
    </projection>

    <processing>
        <geometry.remove value="true"/>
        <roundabouts.guess value="true"/>
    </processing>

    <tls_building>
        <tls.discard-simple value="true"/>
        <tls.join value="true"/>
        <tls.guess-signals value="true"/>
        <tls.default-type value="actuated"/>
    </tls_building>

    <ramp_guessing>
        <ramps.guess value="true"/>
    </ramp_guessing>

    <junctions>
        <junctions.join value="true"/>
        <junctions.corner-detail value="5"/>
    </junctions>

    <railway>
        <railway.topology.repair value="true"/>
    </railway>

    <report>
        <verbose value="true"/>
    </report>

</configuration>
-->

<net version="1.3" junctionCornerDetail="5" limitTurnSpeed="5.50" xmlns:xsi="http://www.w3.org/2001/XMLSchema-instance" xsi:noNamespaceSchemaLocation="http://sumo.dlr.de/xsd/net_file.xsd">

    <location netOffset="-583285.57,-4133923.52" convBoundary="0.00,0.00,2290.39,2538.77" origBoundary="-122.059586,37.348166,-122.033664,37.371072" projParameter="+proj=utm +zone=10 +ellps=WGS84 +datum=WGS84 +units=m +no_defs"/>

    <type id="highway.bridleway" priority="1" numLanes="1" speed="2.78" allow="pedestrian" oneway="1" width="2.00"/>
    <type id="highway.bus_guideway" priority="1" numLanes="1" speed="27.78" allow="bus" oneway="1"/>
    <type id="highway.cycleway" priority="1" numLanes="1" speed="8.33" allow="bicycle" oneway="0" width="1.00"/>
    <type id="highway.footway" priority="1" numLanes="1" speed="2.78" allow="pedestrian" oneway="1" width="2.00"/>
    <type id="highway.ford" priority="1" numLanes="1" speed="2.78" allow="army" oneway="0"/>
    <type id="highway.living_street" priority="2" numLanes="1" speed="2.78" disallow="tram rail_urban rail rail_electric rail_fast ship" oneway="0"/>
    <type id="highway.motorway" priority="14" numLanes="2" speed="39.44" allow="private emergency authority army vip passenger hov taxi bus coach delivery truck trailer motorcycle evehicle custom1 custom2" oneway="1"/>
    <type id="highway.motorway_link" priority="9" numLanes="1" speed="22.22" allow="private emergency authority army vip passenger hov taxi bus coach delivery truck trailer motorcycle evehicle custom1 custom2" oneway="1"/>
    <type id="highway.path" priority="1" numLanes="1" speed="2.78" allow="pedestrian bicycle" oneway="1" width="2.00"/>
    <type id="highway.pedestrian" priority="1" numLanes="1" speed="2.78" allow="pedestrian" oneway="1" width="2.00"/>
    <type id="highway.primary" priority="12" numLanes="2" speed="27.78" disallow="tram rail_urban rail rail_electric rail_fast ship" oneway="0"/>
    <type id="highway.primary_link" priority="7" numLanes="1" speed="22.22" disallow="tram rail_urban rail rail_electric rail_fast ship" oneway="0"/>
    <type id="highway.raceway" priority="15" numLanes="2" speed="83.33" allow="vip" oneway="0"/>
    <type id="highway.residential" priority="3" numLanes="1" speed="13.89" disallow="tram rail_urban rail rail_electric rail_fast ship" oneway="0"/>
    <type id="highway.secondary" priority="11" numLanes="1" speed="27.78" disallow="tram rail_urban rail rail_electric rail_fast ship" oneway="0"/>
    <type id="highway.secondary_link" priority="6" numLanes="1" speed="22.22" disallow="tram rail_urban rail rail_electric rail_fast ship" oneway="0"/>
    <type id="highway.service" priority="1" numLanes="1" speed="5.56" allow="pedestrian delivery bicycle" oneway="0"/>
    <type id="highway.stairs" priority="1" numLanes="1" speed="1.39" allow="pedestrian" oneway="1" width="2.00"/>
    <type id="highway.step" priority="1" numLanes="1" speed="1.39" allow="pedestrian" oneway="1" width="2.00"/>
    <type id="highway.steps" priority="1" numLanes="1" speed="1.39" allow="pedestrian" oneway="1" width="2.00"/>
    <type id="highway.tertiary" priority="10" numLanes="1" speed="22.22" disallow="tram rail_urban rail rail_electric rail_fast ship" oneway="0"/>
    <type id="highway.tertiary_link" priority="5" numLanes="1" speed="22.22" disallow="tram rail_urban rail rail_electric rail_fast ship" oneway="0"/>
    <type id="highway.track" priority="1" numLanes="1" speed="5.56" disallow="tram rail_urban rail rail_electric rail_fast ship" oneway="0"/>
    <type id="highway.trunk" priority="13" numLanes="2" speed="27.78" disallow="pedestrian bicycle tram rail_urban rail rail_electric rail_fast ship" oneway="0"/>
    <type id="highway.trunk_link" priority="8" numLanes="1" speed="22.22" disallow="pedestrian bicycle tram rail_urban rail rail_electric rail_fast ship" oneway="0"/>
    <type id="highway.unclassified" priority="4" numLanes="1" speed="13.89" disallow="tram rail_urban rail rail_electric rail_fast ship" oneway="0"/>
    <type id="highway.unsurfaced" priority="1" numLanes="1" speed="8.33" disallow="tram rail_urban rail rail_electric rail_fast ship" oneway="0"/>
    <type id="railway.highspeed" priority="21" numLanes="1" speed="69.44" allow="rail_fast" oneway="1"/>
    <type id="railway.light_rail" priority="19" numLanes="1" speed="27.78" allow="rail_urban" oneway="1"/>
    <type id="railway.preserved" priority="16" numLanes="1" speed="27.78" allow="rail" oneway="1"/>
    <type id="railway.rail" priority="20" numLanes="1" speed="44.44" allow="rail" oneway="1"/>
    <type id="railway.subway" priority="18" numLanes="1" speed="27.78" allow="rail_urban" oneway="1"/>
    <type id="railway.tram" priority="17" numLanes="1" speed="13.89" allow="tram" oneway="1"/>

    <edge id=":1328062048_0" function="internal">
        <lane id=":1328062048_0_0" index="0" allow="pedestrian delivery bicycle" speed="5.13" length="5.37" shape="756.00,616.99 754.35,617.15 753.18,617.68 752.49,618.58 752.28,619.85"/>
    </edge>
    <edge id=":1328062048_1" function="internal">
        <lane id=":1328062048_1_0" index="0" allow="pedestrian delivery bicycle" speed="5.56" length="10.30" shape="756.00,616.99 753.20,616.55 751.24,615.32 750.12,613.29 749.83,610.47"/>
    </edge>
    <edge id=":1328062048_2" function="internal">
        <lane id=":1328062048_2_0" index="0" allow="pedestrian delivery bicycle" speed="3.65" length="4.67" shape="756.00,616.99 754.81,616.17 754.42,615.37 754.83,614.57 756.04,613.79"/>
    </edge>
    <edge id=":1328062048_3" function="internal">
        <lane id=":1328062048_3_0" index="0" allow="pedestrian delivery bicycle" speed="5.01" length="5.03" shape="753.03,610.60 753.17,611.98 753.72,612.97 754.68,613.57 756.04,613.79"/>
    </edge>
    <edge id=":1328062048_4" function="internal">
        <lane id=":1328062048_4_0" index="0" allow="pedestrian delivery bicycle" speed="5.56" length="9.27" shape="753.03,610.60 752.28,619.85"/>
    </edge>
    <edge id=":1328062048_5" function="internal">
        <lane id=":1328062048_5_0" index="0" allow="pedestrian delivery bicycle" speed="3.65" length="4.67" shape="753.03,610.60 752.18,611.77 751.36,612.14 750.58,611.70 749.83,610.47"/>
    </edge>
    <edge id=":1328062048_6" function="internal">
        <lane id=":1328062048_6_0" index="0" allow="pedestrian delivery bicycle" speed="5.56" length="9.00" shape="749.10,619.45 749.83,610.47"/>
    </edge>
    <edge id=":1328062048_7" function="internal">
        <lane id=":1328062048_7_0" index="0" allow="pedestrian delivery bicycle" speed="5.56" length="9.98" shape="749.10,619.45 749.81,616.94 751.20,615.16 753.28,614.11 756.04,613.79"/>
    </edge>
    <edge id=":1328062048_8" function="internal">
        <lane id=":1328062048_8_0" index="0" allow="pedestrian delivery bicycle" speed="3.72" length="4.68" shape="749.10,619.45 750.04,618.35 750.89,618.06 751.63,618.56 752.28,619.85"/>
    </edge>
    <edge id=":1328062053_0" function="internal">
        <lane id=":1328062053_0_0" index="0" disallow="tram rail_urban rail rail_electric rail_fast ship" speed="5.16" length="5.15" shape="733.23,453.04 733.01,451.60 732.42,450.57 731.45,449.94 730.12,449.71"/>
    </edge>
    <edge id=":1328062053_1" function="internal">
        <lane id=":1328062053_1_0" index="0" allow="pedestrian delivery bicycle" speed="3.65" length="4.67" shape="733.23,453.04 734.01,451.82 734.80,451.41 735.60,451.79 736.43,452.97"/>
    </edge>
    <edge id=":1328062053_2" function="internal">
        <lane id=":1328062053_2_0" index="0" allow="pedestrian delivery bicycle" speed="5.00" length="5.04" shape="739.52,449.86 738.14,450.03 737.17,450.61 736.60,451.59 736.43,452.97"/>
    </edge>
    <edge id=":1328062053_3" function="internal">
        <lane id=":1328062053_3_0" index="0" disallow="tram rail_urban rail rail_electric rail_fast ship" speed="17.88" length="9.40" shape="739.52,449.86 730.12,449.71"/>
        <lane id=":1328062053_3_1" index="1" disallow="tram rail_urban rail rail_electric rail_fast ship" speed="17.88" length="9.40" shape="739.57,446.66 730.17,446.51"/>
        <lane id=":1328062053_3_2" index="2" disallow="tram rail_urban rail rail_electric rail_fast ship" speed="17.88" length="9.40" shape="739.62,443.46 730.22,443.32"/>
    </edge>
    <edge id=":1328062054_0" function="internal">
        <lane id=":1328062054_0_0" index="0" disallow="tram rail_urban rail rail_electric rail_fast ship" speed="15.65" length="9.40" shape="809.39,650.88 809.33,660.28"/>
        <lane id=":1328062054_0_1" index="1" disallow="tram rail_urban rail rail_electric rail_fast ship" speed="15.65" length="9.40" shape="806.19,650.86 806.13,660.26"/>
    </edge>
    <edge id=":1328062054_2" function="internal">
        <lane id=":1328062054_2_0" index="0" allow="pedestrian delivery bicycle" speed="7.64" length="4.33" shape="806.19,650.86 805.58,653.62 804.56,654.73"/>
    </edge>
    <edge id=":1328062054_3" function="internal">
        <lane id=":1328062054_3_0" index="0" disallow="tram rail_urban rail rail_electric rail_fast ship" speed="3.65" length="2.34" shape="806.19,650.86 805.38,652.05 804.58,652.45"/>
    </edge>
    <edge id=":1328062054_11" function="internal">
        <lane id=":1328062054_11_0" index="0" allow="pedestrian delivery bicycle" speed="7.64" length="8.54" shape="804.56,654.73 803.78,655.58 800.80,656.74 796.63,657.09"/>
    </edge>
    <edge id=":1328062054_12" function="internal">
        <lane id=":1328062054_12_0" index="0" disallow="tram rail_urban rail rail_electric rail_fast ship" speed="3.65" length="2.34" shape="804.58,652.45 803.78,652.04 802.99,650.84"/>
    </edge>
    <edge id=":1328062054_4" function="internal">
        <lane id=":1328062054_4_0" index="0" disallow="tram rail_urban rail rail_electric rail_fast ship" speed="5.04" length="5.00" shape="796.66,653.89 798.02,653.71 799.00,653.14 799.59,652.17 799.79,650.82"/>
    </edge>
    <edge id=":1328062054_5" function="internal">
        <lane id=":1328062054_5_0" index="0" disallow="tram rail_urban rail rail_electric rail_fast ship" speed="7.65" length="12.84" shape="796.66,653.89 800.82,654.33 803.78,655.53 805.55,657.51 806.13,660.26"/>
    </edge>
    <edge id=":1328062054_6" function="internal">
        <lane id=":1328062054_6_0" index="0" allow="pedestrian delivery bicycle" speed="3.65" length="4.67" shape="796.66,653.89 797.86,654.70 798.25,655.51 797.84,656.30 796.63,657.09"/>
    </edge>
    <edge id=":1328062054_7" function="internal">
        <lane id=":1328062054_7_0" index="0" allow="pedestrian delivery bicycle" speed="5.05" length="5.01" shape="799.73,660.22 799.54,658.86 798.96,657.89 797.99,657.30 796.63,657.09"/>
    </edge>
    <edge id=":1328062054_8" function="internal">
        <lane id=":1328062054_8_0" index="0" disallow="tram rail_urban rail rail_electric rail_fast ship" speed="15.65" length="9.40" shape="799.73,660.22 799.79,650.82"/>
        <lane id=":1328062054_8_1" index="1" disallow="tram rail_urban rail rail_electric rail_fast ship" speed="15.65" length="9.40" shape="802.93,660.24 802.99,650.84"/>
    </edge>
    <edge id=":1328062054_10" function="internal">
        <lane id=":1328062054_10_0" index="0" disallow="tram rail_urban rail rail_electric rail_fast ship" speed="3.65" length="2.34" shape="802.93,660.24 803.74,659.04 804.54,658.65"/>
    </edge>
    <edge id=":1328062054_13" function="internal">
        <lane id=":1328062054_13_0" index="0" disallow="tram rail_urban rail rail_electric rail_fast ship" speed="3.65" length="2.34" shape="804.54,658.65 805.34,659.05 806.13,660.26"/>
    </edge>
    <edge id=":1459467601_0" function="internal">
        <lane id=":1459467601_0_0" index="0" allow="pedestrian delivery bicycle" speed="5.09" length="4.99" shape="752.55,631.42 752.77,632.76 753.37,633.71 754.34,634.30 755.70,634.50"/>
    </edge>
    <edge id=":1459467601_1" function="internal">
        <lane id=":1459467601_1_0" index="0" allow="pedestrian delivery bicycle" speed="5.56" length="6.13" shape="752.55,631.42 752.55,637.55"/>
    </edge>
    <edge id=":1459467601_2" function="internal">
        <lane id=":1459467601_2_0" index="0" allow="pedestrian delivery bicycle" speed="3.65" length="4.67" shape="752.55,631.42 751.77,632.64 750.98,633.06 750.17,632.68 749.35,631.50"/>
    </edge>
    <edge id=":1459467601_3" function="internal">
        <lane id=":1459467601_3_0" index="0" allow="pedestrian delivery bicycle" speed="5.56" length="5.99" shape="749.35,637.48 749.35,631.50"/>
    </edge>
    <edge id=":1459467601_4" function="internal">
        <lane id=":1459467601_4_0" index="0" allow="pedestrian delivery bicycle" speed="5.56" length="7.73" shape="749.35,637.48 749.77,636.15 750.97,635.21 752.94,634.66 755.70,634.50"/>
    </edge>
    <edge id=":1459467601_5" function="internal">
        <lane id=":1459467601_5_0" index="0" allow="pedestrian delivery bicycle" speed="3.65" length="4.67" shape="749.35,637.48 750.17,636.30 750.98,635.92 751.77,636.33 752.55,637.55"/>
    </edge>
    <edge id=":1459468047_0" function="internal">
        <lane id=":1459468047_0_0" index="0" allow="pedestrian delivery bicycle" speed="5.03" length="5.01" shape="756.86,579.85 755.49,580.02 754.51,580.59 753.92,581.56 753.72,582.92"/>
    </edge>
    <edge id=":1459468047_1" function="internal">
        <lane id=":1459468047_1_0" index="0" allow="pedestrian delivery bicycle" speed="5.56" length="7.71" shape="756.86,579.85 754.09,579.63 752.10,579.05 750.89,578.13 750.46,576.86"/>
    </edge>
    <edge id=":1459468047_2" function="internal">
        <lane id=":1459468047_2_0" index="0" allow="pedestrian delivery bicycle" speed="5.56" length="6.15" shape="753.66,576.77 753.72,582.92"/>
    </edge>
    <edge id=":1459468047_3" function="internal">
        <lane id=":1459468047_3_0" index="0" allow="pedestrian delivery bicycle" speed="3.65" length="4.67" shape="753.66,576.77 752.89,577.99 752.10,578.41 751.29,578.03 750.46,576.86"/>
    </edge>
    <edge id=":1459468047_4" function="internal">
        <lane id=":1459468047_4_0" index="0" allow="pedestrian delivery bicycle" speed="5.56" length="6.04" shape="750.52,582.89 750.46,576.86"/>
    </edge>
    <edge id=":1459468047_5" function="internal">
        <lane id=":1459468047_5_0" index="0" allow="pedestrian delivery bicycle" speed="3.65" length="4.67" shape="750.52,582.89 751.33,581.70 752.13,581.31 752.93,581.71 753.72,582.92"/>
    </edge>
    <edge id=":1459468048_0" function="internal">
        <lane id=":1459468048_0_0" index="0" allow="pedestrian delivery bicycle" speed="5.13" length="5.14" shape="792.40,617.41 790.99,617.61 789.98,618.20 789.36,619.18 789.14,620.55"/>
    </edge>
    <edge id=":1459468048_1" function="internal">
        <lane id=":1459468048_1_0" index="0" allow="pedestrian delivery bicycle" speed="5.56" length="9.51" shape="792.40,617.41 782.89,617.35"/>
    </edge>
    <edge id=":1459468048_2" function="internal">
        <lane id=":1459468048_2_0" index="0" allow="pedestrian delivery bicycle" speed="5.56" length="10.27" shape="792.40,617.41 789.60,617.01 787.63,615.81 786.47,613.81 786.14,611.00"/>
    </edge>
    <edge id=":1459468048_3" function="internal">
        <lane id=":1459468048_3_0" index="0" allow="pedestrian delivery bicycle" speed="3.65" length="4.67" shape="792.40,617.41 791.20,616.61 790.80,615.81 791.20,615.01 792.40,614.21"/>
    </edge>
    <edge id=":1459468048_4" function="internal">
        <lane id=":1459468048_4_0" index="0" allow="pedestrian delivery bicycle" speed="5.02" length="5.03" shape="789.33,611.08 789.50,612.45 790.06,613.43 791.03,614.02 792.40,614.21"/>
    </edge>
    <edge id=":1459468048_5" function="internal">
        <lane id=":1459468048_5_0" index="0" allow="pedestrian delivery bicycle" speed="5.56" length="9.48" shape="789.33,611.08 789.14,620.55"/>
    </edge>
    <edge id=":1459468048_6" function="internal">
        <lane id=":1459468048_6_0" index="0" allow="pedestrian delivery bicycle" speed="5.56" length="10.23" shape="789.33,611.08 788.88,613.85 787.65,615.82 785.65,616.99 782.89,617.35"/>
    </edge>
    <edge id=":1459468048_7" function="internal">
        <lane id=":1459468048_7_0" index="0" allow="pedestrian delivery bicycle" speed="3.65" length="4.67" shape="789.33,611.08 788.51,612.26 787.70,612.64 786.91,612.22 786.14,611.00"/>
    </edge>
    <edge id=":1459468048_8" function="internal">
        <lane id=":1459468048_8_0" index="0" allow="pedestrian delivery bicycle" speed="5.10" length="5.11" shape="782.93,614.15 784.31,613.97 785.30,613.38 785.91,612.39 786.14,611.00"/>
    </edge>
    <edge id=":1459468048_9" function="internal">
        <lane id=":1459468048_9_0" index="0" allow="pedestrian delivery bicycle" speed="5.56" length="9.47" shape="782.93,614.15 792.40,614.21"/>
    </edge>
    <edge id=":1459468048_10" function="internal">
        <lane id=":1459468048_10_0" index="0" allow="pedestrian delivery bicycle" speed="5.56" length="10.18" shape="782.93,614.15 785.69,614.58 787.64,615.79 788.79,617.78 789.14,620.55"/>
    </edge>
    <edge id=":1459468048_11" function="internal">
        <lane id=":1459468048_11_0" index="0" allow="pedestrian delivery bicycle" speed="3.65" length="4.67" shape="782.93,614.15 784.12,614.97 784.51,615.77 784.10,616.57 782.89,617.35"/>
    </edge>
    <edge id=":1459468048_12" function="internal">
        <lane id=":1459468048_12_0" index="0" allow="pedestrian delivery bicycle" speed="5.04" length="5.01" shape="785.94,620.50 785.77,619.14 785.20,618.16 784.24,617.56 782.89,617.35"/>
    </edge>
    <edge id=":1459468048_13" function="internal">
        <lane id=":1459468048_13_0" index="0" allow="pedestrian delivery bicycle" speed="5.56" length="9.50" shape="785.94,620.50 786.14,611.00"/>
    </edge>
    <edge id=":1459468048_14" function="internal">
        <lane id=":1459468048_14_0" index="0" allow="pedestrian delivery bicycle" speed="5.56" length="10.24" shape="785.94,620.50 786.39,617.75 787.61,615.78 789.62,614.61 792.40,614.21"/>
    </edge>
    <edge id=":1459468048_15" function="internal">
        <lane id=":1459468048_15_0" index="0" allow="pedestrian delivery bicycle" speed="3.65" length="4.67" shape="785.94,620.50 786.76,619.31 787.57,618.93 788.36,619.34 789.14,620.55"/>
    </edge>
    <edge id=":1459468049_0" function="internal">
        <lane id=":1459468049_0_0" index="0" allow="pedestrian delivery bicycle" speed="5.56" length="6.35" shape="750.22,567.93 750.14,561.59"/>
    </edge>
    <edge id=":1459468049_1" function="internal">
        <lane id=":1459468049_1_0" index="0" allow="pedestrian delivery bicycle" speed="5.56" length="7.89" shape="750.22,567.93 750.58,566.48 751.75,565.47 753.73,564.89 756.51,564.74"/>
    </edge>
    <edge id=":1459468049_2" function="internal">
        <lane id=":1459468049_2_0" index="0" allow="pedestrian delivery bicycle" speed="3.65" length="4.67" shape="750.22,567.93 750.99,566.71 751.78,566.29 752.59,566.67 753.42,567.85"/>
    </edge>
    <edge id=":1459468049_3" function="internal">
        <lane id=":1459468049_3_0" index="0" allow="pedestrian delivery bicycle" speed="5.10" length="5.07" shape="753.34,561.60 753.54,562.95 754.13,563.92 755.12,564.52 756.51,564.74"/>
    </edge>
    <edge id=":1459468049_4" function="internal">
        <lane id=":1459468049_4_0" index="0" allow="pedestrian delivery bicycle" speed="5.56" length="6.25" shape="753.34,561.60 753.42,567.85"/>
    </edge>
    <edge id=":1459468049_5" function="internal">
        <lane id=":1459468049_5_0" index="0" allow="pedestrian delivery bicycle" speed="3.65" length="4.67" shape="753.34,561.60 752.54,562.80 751.74,563.19 750.94,562.79 750.14,561.59"/>
    </edge>
    <edge id=":1459468052_0" function="internal">
        <lane id=":1459468052_0_0" index="0" allow="pedestrian delivery bicycle" speed="5.56" length="6.39" shape="789.57,546.50 789.56,552.89"/>
    </edge>
    <edge id=":1459468052_1" function="internal">
        <lane id=":1459468052_1_0" index="0" allow="pedestrian delivery bicycle" speed="5.56" length="7.85" shape="789.57,546.50 789.19,547.93 788.02,548.93 786.04,549.51 783.27,549.66"/>
    </edge>
    <edge id=":1459468052_2" function="internal">
        <lane id=":1459468052_2_0" index="0" allow="pedestrian delivery bicycle" speed="3.65" length="4.67" shape="789.57,546.50 788.79,547.72 787.99,548.13 787.19,547.75 786.37,546.56"/>
    </edge>
    <edge id=":1459468052_3" function="internal">
        <lane id=":1459468052_3_0" index="0" allow="pedestrian delivery bicycle" speed="5.05" length="5.05" shape="786.36,552.82 786.19,551.46 785.62,550.48 784.64,549.88 783.27,549.66"/>
    </edge>
    <edge id=":1459468052_4" function="internal">
        <lane id=":1459468052_4_0" index="0" allow="pedestrian delivery bicycle" speed="5.56" length="6.26" shape="786.36,552.82 786.37,546.56"/>
    </edge>
    <edge id=":1459468052_5" function="internal">
        <lane id=":1459468052_5_0" index="0" allow="pedestrian delivery bicycle" speed="3.65" length="4.67" shape="786.36,552.82 787.18,551.64 787.99,551.26 788.78,551.67 789.56,552.89"/>
    </edge>
    <edge id=":1459468053_0" function="internal">
        <lane id=":1459468053_0_0" index="0" allow="pedestrian delivery bicycle" speed="5.04" length="5.01" shape="757.54,518.59 756.18,518.77 755.20,519.34 754.61,520.31 754.41,521.67"/>
    </edge>
    <edge id=":1459468053_1" function="internal">
        <lane id=":1459468053_1_0" index="0" allow="pedestrian delivery bicycle" speed="5.56" length="10.19" shape="757.54,518.59 754.78,518.17 752.82,516.96 751.66,514.97 751.30,512.20"/>
    </edge>
    <edge id=":1459468053_2" function="internal">
        <lane id=":1459468053_2_0" index="0" allow="pedestrian delivery bicycle" speed="3.65" length="4.67" shape="757.54,518.59 756.35,517.78 755.95,516.97 756.36,516.18 757.57,515.39"/>
    </edge>
    <edge id=":1459468053_3" function="internal">
        <lane id=":1459468053_3_0" index="0" allow="pedestrian delivery bicycle" speed="5.03" length="5.01" shape="754.50,512.25 754.68,513.61 755.25,514.59 756.21,515.18 757.57,515.39"/>
    </edge>
    <edge id=":1459468053_4" function="internal">
        <lane id=":1459468053_4_0" index="0" allow="pedestrian delivery bicycle" speed="5.56" length="9.42" shape="754.50,512.25 754.41,521.67"/>
    </edge>
    <edge id=":1459468053_5" function="internal">
        <lane id=":1459468053_5_0" index="0" allow="pedestrian delivery bicycle" speed="3.65" length="4.67" shape="754.50,512.25 753.69,513.44 752.88,513.82 752.09,513.41 751.30,512.20"/>
    </edge>
    <edge id=":1459468053_6" function="internal">
        <lane id=":1459468053_6_0" index="0" allow="pedestrian delivery bicycle" speed="5.56" length="9.45" shape="751.21,521.65 751.30,512.20"/>
    </edge>
    <edge id=":1459468053_7" function="internal">
        <lane id=":1459468053_7_0" index="0" allow="pedestrian delivery bicycle" speed="5.56" length="10.19" shape="751.21,521.65 751.62,518.89 752.82,516.92 754.80,515.76 757.57,515.39"/>
    </edge>
    <edge id=":1459468053_8" function="internal">
        <lane id=":1459468053_8_0" index="0" allow="pedestrian delivery bicycle" speed="3.65" length="4.67" shape="751.21,521.65 752.02,520.45 752.82,520.06 753.62,520.46 754.41,521.67"/>
    </edge>
    <edge id=":1459468055_0" function="internal">
        <lane id=":1459468055_0_0" index="0" allow="pedestrian delivery bicycle" speed="5.05" length="4.99" shape="754.37,530.29 754.56,531.65 755.13,532.62 756.10,533.21 757.45,533.42"/>
    </edge>
    <edge id=":1459468055_1" function="internal">
        <lane id=":1459468055_1_0" index="0" allow="pedestrian delivery bicycle" speed="5.56" length="6.11" shape="754.37,530.29 754.17,536.40"/>
    </edge>
    <edge id=":1459468055_2" function="internal">
        <lane id=":1459468055_2_0" index="0" allow="pedestrian delivery bicycle" speed="3.65" length="4.67" shape="754.37,530.29 753.57,531.49 752.76,531.89 751.97,531.48 751.17,530.28"/>
    </edge>
    <edge id=":1459468055_3" function="internal">
        <lane id=":1459468055_3_0" index="0" allow="pedestrian delivery bicycle" speed="5.56" length="5.93" shape="750.98,536.20 751.17,530.28"/>
    </edge>
    <edge id=":1459468055_4" function="internal">
        <lane id=":1459468055_4_0" index="0" allow="pedestrian delivery bicycle" speed="5.56" length="7.68" shape="750.98,536.20 751.45,534.96 752.68,534.08 754.68,533.57 757.45,533.42"/>
    </edge>
    <edge id=":1459468055_5" function="internal">
        <lane id=":1459468055_5_0" index="0" allow="pedestrian delivery bicycle" speed="3.65" length="4.67" shape="750.98,536.20 751.85,535.05 752.67,534.70 753.45,535.15 754.17,536.40"/>
    </edge>
    <edge id=":1459468058_0" function="internal">
        <lane id=":1459468058_0_0" index="0" allow="pedestrian delivery bicycle" speed="5.56" length="6.65" shape="742.88,493.14 739.49,487.41"/>
    </edge>
    <edge id=":1459468058_1" function="internal">
        <lane id=":1459468058_1_0" index="0" allow="pedestrian delivery bicycle" speed="5.56" length="9.46" shape="742.88,493.14 742.06,490.93 742.59,489.29 744.45,488.22 747.64,487.72"/>
    </edge>
    <edge id=":1459468058_2" function="internal">
        <lane id=":1459468058_2_0" index="0" allow="pedestrian delivery bicycle" speed="3.65" length="4.67" shape="742.88,493.14 742.95,491.70 743.43,490.95 744.33,490.88 745.63,491.50"/>
    </edge>
    <edge id=":1459468058_3" function="internal">
        <lane id=":1459468058_3_0" index="0" allow="pedestrian delivery bicycle" speed="5.56" length="6.00" shape="742.26,485.80 743.06,486.73 744.23,487.35 745.76,487.68 747.64,487.72"/>
    </edge>
    <edge id=":1459468058_4" function="internal">
        <lane id=":1459468058_4_0" index="0" allow="pedestrian delivery bicycle" speed="5.56" length="6.62" shape="742.26,485.80 745.63,491.50"/>
    </edge>
    <edge id=":1459468058_5" function="internal">
        <lane id=":1459468058_5_0" index="0" allow="pedestrian delivery bicycle" speed="3.65" length="4.67" shape="742.26,485.80 742.17,487.24 741.68,487.99 740.79,488.05 739.49,487.41"/>
    </edge>
    <edge id=":1459468059_0" function="internal">
        <lane id=":1459468059_0_0" index="0" allow="pedestrian delivery bicycle" speed="5.56" length="6.35" shape="789.62,577.10 789.70,583.45"/>
    </edge>
    <edge id=":1459468059_1" function="internal">
        <lane id=":1459468059_1_0" index="0" allow="pedestrian delivery bicycle" speed="5.56" length="7.89" shape="789.62,577.10 789.26,578.54 788.10,579.56 786.12,580.15 783.34,580.31"/>
    </edge>
    <edge id=":1459468059_2" function="internal">
        <lane id=":1459468059_2_0" index="0" allow="pedestrian delivery bicycle" speed="3.65" length="4.67" shape="789.62,577.10 788.85,578.32 788.07,578.74 787.26,578.37 786.42,577.19"/>
    </edge>
    <edge id=":1459468059_3" function="internal">
        <lane id=":1459468059_3_0" index="0" allow="pedestrian delivery bicycle" speed="5.09" length="5.06" shape="786.50,583.44 786.31,582.09 785.72,581.12 784.73,580.52 783.34,580.31"/>
    </edge>
    <edge id=":1459468059_4" function="internal">
        <lane id=":1459468059_4_0" index="0" allow="pedestrian delivery bicycle" speed="5.56" length="6.25" shape="786.50,583.44 786.42,577.19"/>
    </edge>
    <edge id=":1459468059_5" function="internal">
        <lane id=":1459468059_5_0" index="0" allow="pedestrian delivery bicycle" speed="3.65" length="4.67" shape="786.50,583.44 787.31,582.24 788.11,581.84 788.91,582.25 789.70,583.45"/>
    </edge>
    <edge id=":1459468062_0" function="internal">
        <lane id=":1459468062_0_0" index="0" allow="pedestrian delivery bicycle" speed="5.04" length="5.06" shape="756.56,549.21 755.17,549.39 754.17,549.95 753.58,550.92 753.37,552.28"/>
    </edge>
    <edge id=":1459468062_1" function="internal">
        <lane id=":1459468062_1_0" index="0" allow="pedestrian delivery bicycle" speed="5.56" length="7.88" shape="756.56,549.21 753.78,548.96 751.83,548.31 750.70,547.25 750.39,545.80"/>
    </edge>
    <edge id=":1459468062_2" function="internal">
        <lane id=":1459468062_2_0" index="0" allow="pedestrian delivery bicycle" speed="5.56" length="6.29" shape="753.58,545.99 753.37,552.28"/>
    </edge>
    <edge id=":1459468062_3" function="internal">
        <lane id=":1459468062_3_0" index="0" allow="pedestrian delivery bicycle" speed="3.65" length="4.67" shape="753.58,545.99 752.71,547.14 751.88,547.49 751.11,547.04 750.39,545.80"/>
    </edge>