<?xml version="1.0" encoding="UTF-8"?>

<!-- generated on Mon Dec 23 11:55:55 2019 by Eclipse SUMO duarouter Version v1_3_1+0817-d484d16121
<configuration xmlns:xsi="http://www.w3.org/2001/XMLSchema-instance" xsi:noNamespaceSchemaLocation="http://sumo.dlr.de/xsd/duarouterConfiguration.xsd">

    <input>
        <net-file value="/home/charu/Projects/sumo/tools/2019-12-23-11-55-52/osm.net.xml"/>
        <route-files value="/home/charu/Projects/sumo/tools/2019-12-23-11-55-52/osm.passenger.trips.xml"/>
    </input>

    <output>
        <output-file value="/home/charu/Projects/sumo/tools/2019-12-23-11-55-52/osm.passenger.trips.xml.tmp"/>
        <write-trips value="true"/>
    </output>

    <time>
        <begin value="0"/>
        <end value="3600.0"/>
    </time>

    <report>
        <no-warnings value="true"/>
        <ignore-errors value="true"/>
        <no-step-log value="true"/>
    </report>

</configuration>
-->

<routes xmlns:xsi="http://www.w3.org/2001/XMLSchema-instance" xsi:noNamespaceSchemaLocation="http://sumo.dlr.de/xsd/routes_file.xsd">
    <vType id="veh_passenger" vClass="passenger"/>
    <trip id="veh0" type="veh_passenger" depart="0.00" departLane="best" departSpeed="max" from="334904784#0" to="-339412115"/>
    <trip id="veh1" type="veh_passenger" depart="6.62" departLane="best" from="8935347#0" to="-340316586#4"/>
    <trip id="veh2" type="veh_passenger" depart="13.24" departLane="best" departSpeed="max" from="-8966647#2" to="-339412118"/>
    <trip id="veh3" type="veh_passenger" depart="19.87" departLane="best" from="-8929985#1" to="334904790#0"/>
    <trip id="veh4" type="veh_passenger" depart="26.49" departLane="best" departSpeed="max" from="334904786#0" to="334904793#1"/>
    <trip id="veh5" type="veh_passenger" depart="33.11" departLane="best" departSpeed="max" from="-8932592" to="339412130#1"/>
    <trip id="veh6" type="veh_passenger" depart="39.73" departLane="best" from="-8957214#0" to="-52238224#0"/>
    <trip id="veh8" type="veh_passenger" depart="52.97" departLane="best" from="-339412144" to="-340316586#7"/>
    <trip id="veh9" type="veh_passenger" depart="59.60" departLane="best" from="516412926" to="340316586#0"/>
    <trip id="veh10" type="veh_passenger" depart="66.22" departLane="best" from="340316597#0" to="596676391#0"/>
    <trip id="veh12" type="veh_passenger" depart="79.46" departLane="best" departSpeed="max" from="-8964088" to="334904793#1"/>
    <trip id="veh13" type="veh_passenger" depart="86.08" departLane="best" from="415815390#0" to="340316586#4"/>
    <trip id="veh14" type="veh_passenger" depart="92.70" departLane="best" from="52241956#2" to="339412127#0"/>
    <trip id="veh15" type="veh_passenger" depart="99.33" departLane="best" from="334904791#1" to="-339412127#1"/>
    <trip id="veh16" type="veh_passenger" depart="105.95" departLane="best" from="-8934078#0" to="-8970387#1"/>
    <trip id="veh17" type="veh_passenger" depart="112.57" departLane="best" from="-339412130#1" to="-8950303"/>
    <trip id="veh18" type="veh_passenger" depart="119.19" departLane="best" from="-340316586#10" to="-8968878#6"/>
    <trip id="veh19" type="veh_passenger" depart="125.81" departLane="best" departSpeed="max" from="334904784#0" to="262294266#0"/>
    <trip id="veh20" type="veh_passenger" depart="132.43" departLane="best" from="-8963236" to="-8947894#0"/>
    <trip id="veh21" type="veh_passenger" depart="139.06" departLane="best" departSpeed="max" from="-8947123" to="8965732"/>
    <trip id="veh22" type="veh_passenger" depart="145.68" departLane="best" departSpeed="max" from="334904784#0" to="340316586#10"/>
    <trip id="veh23" type="veh_passenger" depart="152.30" departLane="best" from="-52113165#0" to="59260305"/>
    <trip id="veh24" type="veh_passenger" depart="158.92" departLane="best" from="-415820820#0" to="262294276#1"/>
    <trip id="veh25" type="veh_passenger" depart="165.54" departLane="best" from="8969082#0" to="340316590#1"/>
    <trip id="veh26" type="veh_passenger" depart="172.16" departLane="best" from="262294278#0" to="415815387"/>
    <trip id="veh27" type="veh_passenger" depart="178.79" departLane="best" from="47059374#1" to="8935347#4"/>
    <trip id="veh28" type="veh_passenger" depart="185.41" departLane="best" from="-8934078#1" to="-339412120#0"/>
    <trip id="veh29" type="veh_passenger" depart="192.03" departLane="best" departSpeed="max" from="-8951584" to="-8964272#0"/>
    <trip id="veh30" type="veh_passenger" depart="198.65" departLane="best" from="-8929844#1" to="8966150"/>
    <trip id="veh32" type="veh_passenger" depart="211.90" departLane="best" departSpeed="max" from="334904786#0" to="262294278#0"/>
    <trip id="veh34" type="veh_passenger" depart="225.14" departLane="best" from="334904745" to="8961551#1"/>
    <trip id="veh35" type="veh_passenger" depart="231.76" departLane="best" departSpeed="max" from="-8966150" to="-8947894#4"/>
    <trip id="veh36" type="veh_passenger" depart="238.38" departLane="best" from="8970413#1" to="334904790#0"/>
    <trip id="veh37" type="veh_passenger" depart="245.00" departLane="best" from="-339412144" to="-339412127#1"/>
    <trip id="veh38" type="veh_passenger" depart="251.63" departLane="best" departSpeed="max" from="340316587#0" to="334904745"/>
    <trip id="veh39" type="veh_passenger" depart="258.25" departLane="best" from="8970413#0" to="334904791#1"/>
    <trip id="veh40" type="veh_passenger" depart="264.87" departLane="best" departSpeed="max" from="-22999579" to="52194582"/>
    <trip id="veh41" type="veh_passenger" depart="271.49" departLane="best" from="334904790#0" to="334904791#3"/>
    <trip id="veh42" type="veh_passenger" depart="278.11" departLane="best" departSpeed="max" from="-8947123" to="340316595"/>
    <trip id="veh43" type="veh_passenger" depart="284.73" departLane="best" from="-340316586#5" to="334904749"/>
    <trip id="veh44" type="veh_passenger" depart="291.36" departLane="best" departSpeed="max" from="-8969521" to="8966553"/>
    <trip id="veh45" type="veh_passenger" depart="297.98" departLane="best" from="8929844#2" to="-8963808#1"/>
    <trip id="veh46" type="veh_passenger" depart="304.60" departLane="best" from="236020229#4" to="-8929985#1"/>
    <trip id="veh47" type="veh_passenger" depart="311.22" departLane="best" departSpeed="max" from="8947894#0" to="8954146#1"/>
    <trip id="veh48" type="veh_passenger" depart="317.84" departLane="best" departSpeed="max" from="-8949896" to="340316590#1"/>
    <trip id="veh49" type="veh_passenger" depart="324.46" departLane="best" from="334904759#1" to="-52238224#0"/>
    <trip id="veh50" type="veh_passenger" depart="331.09" departLane="best" from="340316586#2" to="334904793#0"/>
    <trip id="veh53" type="veh_passenger" depart="350.95" departLane="best" from="8929844#4" to="8949228"/>
    <trip id="veh54" type="veh_passenger" depart="357.57" departLane="best" departSpeed="max" from="-8949988" to="-339412130#0"/>
    <trip id="veh55" type="veh_passenger" depart="364.20" departLane="best" from="8929844#3" to="8966150"/>
    <trip id="veh56" type="veh_passenger" depart="370.82" departLane="best" departSpeed="max" from="-339412142" to="334904766#1"/>
    <trip id="veh57" type="veh_passenger" depart="377.44" departLane="best" from="-339412128#1" to="8929985#1"/>
    <trip id="veh58" type="veh_passenger" depart="384.06" departLane="best" from="235894236" to="334904793#1"/>
    <trip id="veh59" type="veh_passenger" depart="390.68" departLane="best" departSpeed="max" from="-8947123" to="8954146#2"/>
    <trip id="veh60" type="veh_passenger" depart="397.30" departLane="best" departSpeed="max" from="-8967532" to="-8947894#0"/>
    <trip id="veh63" type="veh_passenger" depart="417.17" departLane="best" from="8970387#1" to="340316596#1"/>
    <trip id="veh64" type="veh_passenger" depart="423.79" departLane="best" from="-8968878#1" to="334904790#2"/>
    <trip id="veh65" type="veh_passenger" depart="430.41" departLane="best" from="-340316586#8" to="-8950018#0"/>
    <trip id="veh66" type="veh_passenger" depart="437.03" departLane="best" departSpeed="max" from="-8954146#2" to="339412130#0"/>
    <trip id="veh67" type="veh_passenger" depart="443.66" departLane="best" from="-8935347#0" to="-8947894#5"/>
    <trip id="veh68" type="veh_passenger" depart="450.28" departLane="best" from="-339412128#1" to="340316586#9"/>
    <trip id="veh69" type="veh_passenger" depart="456.90" departLane="best" from="-8934078#1" to="8961633"/>
    <trip id="veh70" type="veh_passenger" depart="463.52" departLane="best" from="52238224#1" to="-339412144"/>
    <trip id="veh71" type="veh_passenger" depart="470.14" departLane="best" departSpeed="max" from="-8935347#5" to="340316604#0"/>
    <trip id="veh72" type="veh_passenger" depart="476.76" departLane="best" from="-8929844#3" to="-340316604#0"/>
    <trip id="veh73" type="veh_passenger" depart="483.39" departLane="best" departSpeed="max" from="8950303" to="339412120#1"/>
    <trip id="veh74" type="veh_passenger" depart="490.01" departLane="best" from="235894236" to="8935745#0"/>
    <trip id="veh75" type="veh_passenger" depart="496.63" departLane="best" from="340316597#0" to="-8935347#0"/>
    <trip id="veh76" type="veh_passenger" depart="503.25" departLane="best" from="-340316586#0" to="334904748"/>
    <trip id="veh77" type="veh_passenger" depart="509.87" departLane="best" departSpeed="max" from="-8967532" to="334904759#0"/>
    <trip id="veh78" type="veh_passenger" depart="516.49" departLane="best" from="339412126#0" to="340316604#1"/>
    <trip id="veh79" type="veh_passenger" depart="523.12" departLane="best" from="8968878#6" to="-340316586#8"/>
    <trip id="veh81" type="veh_passenger" depart="536.36" departLane="best" from="52241956#2" to="-8959294#1"/>
    <trip id="veh82" type="veh_passenger" depart="542.98" departLane="best" departSpeed="max" from="-596676392" to="334904749"/>
    <trip id="veh83" type="veh_passenger" depart="549.60" departLane="best" departSpeed="max" from="-8966647#2" to="-8968878#6"/>
    <trip id="veh84" type="veh_passenger" depart="556.23" departLane="best" from="-8968878#5" to="8952896#1"/>
    <trip id="veh85" type="veh_passenger" depart="562.85" departLane="best" from="8963808#1" to="8964272#1"/>
    <trip id="veh86" type="veh_passenger" depart="569.47" departLane="best" from="52113165#0" to="-8929844#0"/>
    <trip id="veh87" type="veh_passenger" depart="576.09" departLane="best" from="236020229#1" to="-8947894#0"/>
    <trip id="veh88" type="veh_passenger" depart="582.71" departLane="best" departSpeed="max" from="-8966150" to="-339412130#0"/>
    <trip id="veh89" type="veh_passenger" depart="589.33" departLane="best" departSpeed="max" from="-8964088" to="8968878#7"/>
    <trip id="veh90" type="veh_passenger" depart="595.96" departLane="best" departSpeed="max" from="-8947123" to="8935347#5"/>
    <trip id="veh91" type="veh_passenger" depart="602.58" departLane="best" departSpeed="max" from="-8969521" to="334904745"/>
    <trip id="veh92" type="veh_passenger" depart="609.20" departLane="best" departSpeed="max" from="8962242" to="8970387#1"/>
    <trip id="veh93" type="veh_passenger" depart="615.82" departLane="best" from="-340316597#1" to="129579899#1"/>
    <trip id="veh94" type="veh_passenger" depart="622.44" departLane="best" from="8963808#1" to="339412127#1"/>
    <trip id="veh96" type="veh_passenger" depart="635.69" departLane="best" from="236020229#4" to="8950018#1"/>
    <trip id="veh97" type="veh_passenger" depart="642.31" departLane="best" from="-340316604#0" to="8966647#2"/>
    <trip id="veh98" type="veh_passenger" depart="648.93" departLane="best" from="-339412130#1" to="-8931939"/>
    <trip id="veh99" type="veh_passenger" depart="655.55" departLane="best" from="-8935347#3" to="-340316590#0"/>
    <trip id="veh100" type="veh_passenger" depart="662.17" departLane="best" from="8934078#0" to="-8957767#0"/>
    <trip id="veh101" type="veh_passenger" depart="668.79" departLane="best" from="334904753#0" to="340316586#5"/>
    <trip id="veh102" type="veh_passenger" depart="675.42" departLane="best" departSpeed="max" from="-8966647#2" to="339412128#1"/>
    <trip id="veh103" type="veh_passenger" depart="682.04" departLane="best" from="262294258" to="8965732"/>
    <trip id="veh104" type="veh_passenger" depart="688.66" departLane="best" departSpeed="max" from="-67588347" to="52194581"/>
    <trip id="veh105" type="veh_passenger" depart="695.28" departLane="best" departSpeed="max" from="-8935347#5" to="262294278#0"/>
    <trip id="veh106" type="veh_passenger" depart="701.90" departLane="best" from="334904788#0" to="22999579"/>
    <trip id="veh108" type="veh_passenger" depart="715.15" departLane="best" from="-339412130#0" to="-8947894#0"/>
    <trip id="veh109" type="veh_passenger" depart="721.77" departLane="best" departSpeed="max" from="-8947123" to="8964643"/>
    <trip id="veh110" type="veh_passenger" depart="728.39" departLane="best" from="8929985#0" to="8957214#0"/>
    <trip id="veh111" type="veh_passenger" depart="735.01" departLane="best" from="415820809" to="47059375"/>
    <trip id="veh112" type="veh_passenger" depart="741.63" departLane="best" departSpeed="max" from="334904786#0" to="-129579899#1"/>
    <trip id="veh113" type="veh_passenger" depart="748.26" departLane="best" from="340316604#1" to="22999579"/>
    <trip id="veh114" type="veh_passenger" depart="754.88" departLane="best" departSpeed="max" from="334904786#0" to="8965732"/>
    <trip id="veh115" type="veh_passenger" depart="761.50" departLane="best" from="-340316590#1" to="-340316587#2"/>
    <trip id="veh116" type="veh_passenger" depart="768.12" departLane="best" from="-340316586#3" to="334904793#1"/>
    <trip id="veh117" type="veh_passenger" depart="774.74" departLane="best" from="-8947894#3" to="340316586#0"/>
    <trip id="veh119" type="veh_passenger" depart="787.99" departLane="best" departSpeed="max" from="334904784#0" to="-8963808#2"/>
    <trip id="veh120" type="veh_passenger" depart="794.61" departLane="best" from="236020229#2" to="8961633"/>
    <trip id="veh121" type="veh_passenger" depart="801.23" departLane="best" from="516412926" to="-340316586#6"/>
    <trip id="veh122" type="veh_passenger" depart="807.85" departLane="best" from="-129579899#0" to="8935347#0"/>
    <trip id="veh123" type="veh_passenger" depart="814.47" departLane="best" departSpeed="max" from="334904784#0" to="-8963808#0"/>
    <trip id="veh124" type="veh_passenger" depart="821.09" departLane="best" from="339412128#1" to="334904793#1"/>
    <trip id="veh125" type="veh_passenger" depart="827.72" departLane="best" departSpeed="max" from="-8967532" to="-261413859#1"/>
    <trip id="veh126" type="veh_passenger" depart="834.34" departLane="best" from="-339412130#0" to="8957767#1"/>
    <trip id="veh127" type="veh_passenger" depart="840.96" departLane="best" from="8937162#1" to="334904793#1"/>
    <trip id="veh128" type="veh_passenger" depart="847.58" departLane="best" from="415820814#0" to="339412128#0"/>
    <trip id="veh129" type="veh_passenger" depart="854.20" departLane="best" departSpeed="max" from="-340316596#1" to="-340316597#1"/>
    <trip id="veh130" type="veh_passenger" depart="860.82" departLane="best" departSpeed="max" from="-8949988" to="8961551#1"/>
    <trip id="veh131" type="veh_passenger" depart="867.45" departLane="best" departSpeed="max" from="340316587#0" to="8952896#1"/>
    <trip id="veh132" type="veh_passenger" depart="874.07" departLane="best" from="8935745#0" to="-8947894#0"/>
    <trip id="veh133" type="veh_passenger" depart="880.69" departLane="best" from="-8937162#1" to="-340316587#2"/>
    <trip id="veh134" type="veh_passenger" depart="887.31" departLane="best" from="340316586#9" to="8957908"/>
    <trip id="veh135" type="veh_passenger" depart="893.93" departLane="best" departSpeed="max" from="-8966553" to="340316586#5"/>
    <trip id="veh136" type="veh_passenger" depart="900.56" departLane="best" from="-340316597#1" to="8964643"/>
    <trip id="veh137" type="veh_passenger" depart="907.18" departLane="best" from="340316604#0" to="8957767#0"/>
    <trip id="veh138" type="veh_passenger" depart="913.80" departLane="best" from="-261413859#1" to="596676392"/>
    <trip id="veh139" type="veh_passenger" depart="920.42" departLane="best" from="-8954146#1" to="8964643"/>
    <trip id="veh140" type="veh_passenger" depart="927.04" departLane="best" from="340316595" to="8952896#2"/>
    <trip id="veh141" type="veh_passenger" depart="933.66" departLane="best" from="340316604#0" to="-8964272#0"/>
    <trip id="veh142" type="veh_passenger" depart="940.29" departLane="best" departSpeed="max" from="8929844#0" to="8951584"/>
    <trip id="veh143" type="veh_passenger" depart="946.91" departLane="best" departSpeed="max" from="-8932592" to="8947894#6"/>
    <trip id="veh144" type="veh_passenger" depart="953.53" departLane="best" departSpeed="max" from="340316587#0" to="-8950124"/>
    <trip id="veh145" type="veh_passenger" depart="960.15" departLane="best" from="-261413859#1" to="-8935347#2"/>
    <trip id="veh146" type="veh_passenger" depart="966.77" departLane="best" from="8963236" to="-8968878#7"/>
    <trip id="veh147" type="veh_passenger" depart="973.39" departLane="best" departSpeed="max" from="334904784#0" to="262294278#1"/>
    <trip id="veh148" type="veh_passenger" depart="980.02" departLane="best" from="8968878#4" to="334904791#3"/>
    <trip id="veh149" type="veh_passenger" depart="986.64" departLane="best" departSpeed="max" from="8950303" to="-340316587#2"/>
    <trip id="veh150" type="veh_passenger" depart="993.26" departLane="best" from="8963808#2" to="-8929985#1"/>
    <trip id="veh151" type="veh_passenger" depart="999.88" departLane="best" departSpeed="max" from="8962242" to="-8963808#3"/>
    <trip id="veh152" type="veh_passenger" depart="1006.50" departLane="best" from="-340316586#4" to="334904749"/>
    <trip id="veh153" type="veh_passenger" depart="1013.12" departLane="best" departSpeed="max" from="-8964643" to="339412127#0"/>
    <trip id="veh154" type="veh_passenger" depart="1019.75" departLane="best" departSpeed="max" from="-8939703" to="52113165#1"/>
    <trip id="veh155" type="veh_passenger" depart="1026.37" departLane="best" from="-129579899#0" to="8964272#0"/>
    <trip id="veh157" type="veh_passenger" depart="1039.61" departLane="best" from="339412128#1" to="340316604#0"/>
    <trip id="veh158" type="veh_passenger" depart="1046.23" departLane="best" departSpeed="max" from="-8961633" to="-339412144"/>
    <trip id="veh159" type="veh_passenger" depart="1052.85" departLane="best" from="-8950018#0" to="8949988"/>
    <trip id="veh160" type="veh_passenger" depart="1059.48" departLane="best" from="339412115" to="22999579"/>
    <trip id="veh161" type="veh_passenger" depart="1066.10" departLane="best" departSpeed="max" from="-8949988" to="262294278#3"/>
    <trip id="veh162" type="veh_passenger" depart="1072.72" departLane="best" from="-340316587#2" to="334904741"/>
    <trip id="veh163" type="veh_passenger" depart="1079.34" departLane="best" from="8935745#2" to="340316586#3"/>
    <trip id="veh164" type="veh_passenger" depart="1085.96" departLane="best" departSpeed="max" from="-8949950" to="334904793#1"/>
    <trip id="veh165" type="veh_passenger" depart="1092.59" departLane="best" from="-129579899#0" to="-8970387#0"/>
    <trip id="veh166" type="veh_passenger" depart="1099.21" departLane="best" departSpeed="max" from="-8968404" to="339412127#1"/>
    <trip id="veh167" type="veh_passenger" depart="1105.83" departLane="best" departSpeed="max" from="334904786#0" to="334904759#0"/>
    <trip id="veh168" type="veh_passenger" depart="1112.45" departLane="best" from="-8968878#5" to="-8947894#0"/>
    <trip id="veh169" type="veh_passenger" depart="1119.07" departLane="best" from="235894236" to="8961551#1"/>
    <trip id="veh170" type="veh_passenger" depart="1125.69" departLane="best" departSpeed="max" from="340316587#0" to="-8929844#0"/>
    <trip id="veh171" type="veh_passenger" depart="1132.32" departLane="best" departSpeed="max" from="-339412142" to="334904790#1"/>
    <trip id="veh173" type="veh_passenger" depart="1145.56" departLane="best" from="409491762" to="67588347"/>
    <trip id="veh174" type="veh_passenger" depart="1152.18" departLane="best" from="334904788#0" to="-8950018#0"/>
    <trip id="veh175" type="veh_passenger" depart="1158.80" departLane="best" departSpeed="max" from="-615027881" to="-28664612"/>
    <trip id="veh176" type="veh_passenger" depart="1165.42" departLane="best" from="-8935745#0" to="334904764#1"/>
    <trip id="veh177" type="veh_passenger" depart="1172.05" departLane="best" from="52113165#1" to="-340316586#0"/>
    <trip id="veh178" type="veh_passenger" depart="1178.67" departLane="best" from="-8966647#1" to="340316586#8"/>
    <trip id="veh179" type="veh_passenger" depart="1185.29" departLane="best" departSpeed="max" from="-596676392" to="415820820#0"/>
    <trip id="veh180" type="veh_passenger" depart="1191.91" departLane="best" from="236020229#3" to="-8957214#0"/>
    <trip id="veh181" type="veh_passenger" depart="1198.53" departLane="best" departSpeed="max" from="334904786#0" to="-129579899#1"/>
    <trip id="veh182" type="veh_passenger" depart="1205.15" departLane="best" from="339412144" to="8934078#1"/>
    <trip id="veh183" type="veh_passenger" depart="1211.78" departLane="best" from="-340316586#3" to="334904745"/>
    <trip id="veh184" type="veh_passenger" depart="1218.40" departLane="best" departSpeed="max" from="-52194582" to="8966647#2"/>
    <trip id="veh185" type="veh_passenger" depart="1225.02" departLane="best" from="-8937162#0" to="8949988"/>
    <trip id="veh186" type="veh_passenger" depart="1231.64" departLane="best" departSpeed="max" from="-8969521" to="8942535#3"/>
    <trip id="veh187" type="veh_passenger" depart="1238.26" departLane="best" from="334904786#2" to="8969035"/>
    <trip id="veh188" type="veh_passenger" depart="1244.88" departLane="best" from="334904753#0" to="8966553"/>
    <trip id="veh189" type="veh_passenger" depart="1251.51" departLane="best" from="339412115" to="334904790#0"/>
    <trip id="veh190" type="veh_passenger" depart="1258.13" departLane="best" from="415815390#0" to="334904793#1"/>
    <trip id="veh191" type="veh_passenger" depart="1264.75" departLane="best" from="8935347#3" to="615027881"/>
    <trip id="veh192" type="veh_passenger" depart="1271.37" departLane="best" from="235894236" to="-8963235#0"/>
    <trip id="veh193" type="veh_passenger" depart="1277.99" departLane="best" from="-8935745#2" to="340316590#0"/>
    <trip id="veh194" type="veh_passenger" depart="1284.62" departLane="best" from="340316586#3" to="334904790#2"/>
    <trip id="veh195" type="veh_passenger" depart="1291.24" departLane="best" from="334904766#1" to="-8968878#4"/>
    <trip id="veh196" type="veh_passenger" depart="1297.86" departLane="best" from="-339412130#1" to="-8969082#2"/>
    <trip id="veh199" type="veh_passenger" depart="1317.72" departLane="best" from="-8935347#0" to="415820814#0"/>
    <trip id="veh200" type="veh_passenger" depart="1324.35" departLane="best" from="334904791#2" to="-339412130#1"/>
    <trip id="veh201" type="veh_passenger" depart="1330.97" departLane="best" departSpeed="max" from="-8966553" to="334904793#1"/>
    <trip id="veh202" type="veh_passenger" depart="1337.59" departLane="best" departSpeed="max" from="-8966647#2" to="-8942535#2"/>
    <trip id="veh203" type="veh_passenger" depart="1344.21" departLane="best" departSpeed="max" from="-8966647#2" to="8961633"/>
    <trip id="veh204" type="veh_passenger" depart="1350.83" departLane="best" from="334904745" to="415820820#0"/>
    <trip id="veh205" type="veh_passenger" depart="1357.45" departLane="best" departSpeed="max" from="52238224#0" to="8932592"/>
    <trip id="veh206" type="veh_passenger" depart="1364.08" departLane="best" departSpeed="max" from="-8964088" to="-129579899#1"/>
    <trip id="veh207" type="veh_passenger" depart="1370.70" departLane="best" from="-8959125" to="8929844#1"/>
    <trip id="veh208" type="veh_passenger" depart="1377.32" departLane="best" departSpeed="max" from="52238224#0" to="8966553"/>
    <trip id="veh209" type="veh_passenger" depart="1383.94" departLane="best" departSpeed="max" from="-8966647#2" to="67588347"/>
    <trip id="veh211" type="veh_passenger" depart="1397.18" departLane="best" departSpeed="max" from="-8968404" to="-339412118"/>
    <trip id="veh213" type="veh_passenger" depart="1410.43" departLane="best" departSpeed="max" from="-8966150" to="-8929844#0"/>
    <trip id="veh214" type="veh_passenger" depart="1417.05" departLane="best" from="129579899#0" to="-340316597#1"/>
    <trip id="veh215" type="veh_passenger" depart="1423.67" departLane="best" from="334904766#0" to="-339412117"/>
    <trip id="veh216" type="veh_passenger" depart="1430.29" departLane="best" from="-261413859#4" to="340316595"/>
    <trip id="veh219" type="veh_passenger" depart="1450.16" departLane="best" from="340316586#2" to="262294276#1"/>
    <trip id="veh220" type="veh_passenger" depart="1456.78" departLane="best" from="339412144" to="8949228"/>
    <trip id="veh221" type="veh_passenger" depart="1463.40" departLane="best" departSpeed="max" from="-8939703" to="-340316586#2"/>
    <trip id="veh223" type="veh_passenger" depart="1476.65" departLane="best" from="8970413#2" to="261413859#1"/>
    <trip id="veh224" type="veh_passenger" depart="1483.27" departLane="best" departSpeed="max" from="334904786#0" to="8935347#5"/>
    <trip id="veh225" type="veh_passenger" depart="1489.89" departLane="best" departSpeed="max" from="334904786#0" to="8929844#2"/>
    <trip id="veh226" type="veh_passenger" depart="1496.51" departLane="best" from="8957767#0" to="-8935745#1"/>
    <trip id="veh228" type="veh_passenger" depart="1509.75" departLane="best" from="-340316587#2" to="340316604#0"/>
    <trip id="veh229" type="veh_passenger" depart="1516.38" departLane="best" from="262294278#2" to="-8947894#3"/>
    <trip id="veh230" type="veh_passenger" depart="1523.00" departLane="best" from="334904791#0" to="8932592"/>
    <trip id="veh231" type="veh_passenger" depart="1529.62" departLane="best" from="-47059374#0" to="340316586#1"/>
    <trip id="veh232" type="veh_passenger" depart="1536.24" departLane="best" from="339412143" to="-340316587#2"/>
    <trip id="veh233" type="veh_passenger" depart="1542.86" departLane="best" from="409491762" to="8967532"/>
    <trip id="veh234" type="veh_passenger" depart="1549.48" departLane="best" from="-340316586#4" to="-339412115"/>
    <trip id="veh236" type="veh_passenger" depart="1562.73" departLane="best" departSpeed="max" from="8962242" to="262294278#0"/>
    <trip id="veh238" type="veh_passenger" depart="1575.97" departLane="best" from="334904790#1" to="340316586#8"/>
    <trip id="veh239" type="veh_passenger" depart="1582.59" departLane="best" from="-340316586#10" to="8935347#1"/>
    <trip id="veh240" type="veh_passenger" depart="1589.21" departLane="best" from="-340316586#8" to="8968878#6"/>
    <trip id="veh241" type="veh_passenger" depart="1595.84" departLane="best" departSpeed="max" from="340316587#0" to="25795686"/>
    <trip id="veh242" type="veh_passenger" depart="1602.46" departLane="best" departSpeed="max" from="-8967532" to="262294266#1"/>
    <trip id="veh243" type="veh_passenger" depart="1609.08" departLane="best" from="52113165#1" to="8948991"/>
    <trip id="veh244" type="veh_passenger" depart="1615.70" departLane="best" departSpeed="max" from="334904784#0" to="8949228"/>
    <trip id="veh245" type="veh_passenger" depart="1622.32" departLane="best" from="334904791#2" to="334904749"/>
    <trip id="veh246" type="veh_passenger" depart="1628.95" departLane="best" from="339412127#0" to="8967532"/>
    <trip id="veh247" type="veh_passenger" depart="1635.57" departLane="best" from="-8947894#1" to="8947123"/>
    <trip id="veh249" type="veh_passenger" depart="1648.81" departLane="best" from="415815390#0" to="-340316586#4"/>
    <trip id="veh250" type="veh_passenger" depart="1655.43" departLane="best" from="8929985#1" to="-8957214#0"/>
    <trip id="veh251" type="veh_passenger" depart="1662.05" departLane="best" from="-8970413#1" to="340316586#10"/>
    <trip id="veh252" type="veh_passenger" depart="1668.68" departLane="best" departSpeed="max" from="-8964088" to="-339412118"/>
    <trip id="veh253" type="veh_passenger" depart="1675.30" departLane="best" from="52113165#2" to="-8931716"/>
    <trip id="veh254" type="veh_passenger" depart="1681.92" departLane="best" from="-8929844#2" to="8942535#1"/>
    <trip id="veh255" type="veh_passenger" depart="1688.54" departLane="best" from="334904791#0" to="-8968878#5"/>
    <trip id="veh256" type="veh_passenger" depart="1695.16" departLane="best" departSpeed="max" from="-22999579" to="8966150"/>
    <trip id="veh257" type="veh_passenger" depart="1701.78" departLane="best" departSpeed="max" from="-339412142" to="52194582"/>
    <trip id="veh258" type="veh_passenger" depart="1708.41" departLane="best" from="236020229#2" to="8929844#4"/>
    <trip id="veh259" type="veh_passenger" depart="1715.03" departLane="best" from="334904790#1" to="340316596#1"/>
    <trip id="veh260" type="veh_passenger" depart="1721.65" departLane="best" from="236020229#2" to="8939703"/>
    <trip id="veh261" type="veh_passenger" depart="1728.27" departLane="best" from="-339412144" to="-8947894#6"/>
    <trip id="veh262" type="veh_passenger" depart="1734.89" departLane="best" from="334904741" to="334904764#0"/>
    <trip id="veh263" type="veh_passenger" depart="1741.51" departLane="best" from="334904791#1" to="-8968878#0"/>
    <trip id="veh264" type="veh_passenger" depart="1748.14" departLane="best" departSpeed="max" from="-8939703" to="-340316590#1"/>
    <trip id="veh265" type="veh_passenger" depart="1754.76" departLane="best" departSpeed="max" from="-596676392" to="-340316590#0"/>
    <trip id="veh267" type="veh_passenger" depart="1768.00" departLane="best" from="-52241956#1" to="-8947894#2"/>