<?xml version="1.0" encoding="UTF-8"?>

<!-- generated on Mon Dec 23 11:55:55 2019 by Eclipse SUMO polyconvert Version v1_3_1+0817-d484d16121
<configuration xmlns:xsi="http://www.w3.org/2001/XMLSchema-instance" xsi:noNamespaceSchemaLocation="http://sumo.dlr.de/xsd/polyconvertConfiguration.xsd">

    <input>
        <net-file value="osm.net.xml"/>
        <osm-files value="osm_bbox.osm.xml"/>
        <osm.keep-full-type value="true"/>
        <type-file value="/home/charu/Projects/sumo/data/typemap/osmPolyconvert.typ.xml"/>
    </input>

    <output>
        <output-file value="osm.poly.xml"/>
    </output>

    <processing>
        <poi-layer-offset value="5"/>
    </processing>

    <report>
        <verbose value="true"/>
    </report>

</configuration>
-->

<additional xmlns:xsi="http://www.w3.org/2001/XMLSchema-instance" xsi:noNamespaceSchemaLocation="http://sumo.dlr.de/xsd/additional_file.xsd">
    <location netOffset="-583285.57,-4133923.52" convBoundary="-675.46,-1189.97,2426.75,2991.56" origBoundary="-122.066985,37.337515,-122.032365,37.375263" projParameter="+proj=utm +zone=10 +ellps=WGS84 +datum=WGS84 +units=m +no_defs"/>

    <poly id="132686625" type="building.yes" color="255,230,230" fill="1" layer="-1.00" shape="695.092598,486.601028 715.046801,486.790338 715.146537,476.860858 695.183565,476.660365 695.092598,486.601028"/>
    <poly id="132686625#1" type="shop.convenience" color="237,199,255" fill="1" layer="-1.00" shape="695.092598,486.601028 715.046801,486.790338 715.146537,476.860858 695.183565,476.660365 695.092598,486.601028"/>
    <poly id="173542049" type="amenity.bank" color="237,199,199" fill="1" layer="-1.00" shape="843.341389,326.385041 843.705879,290.150763 829.083159,290.003683 829.075013,290.813573 821.918649,290.741602 821.651546,317.301571 825.061436,317.335864 824.972286,326.200281 843.341389,326.385041"/>
    <poly id="173542049#1" type="building.yes" color="255,230,230" fill="1" layer="-1.00" shape="843.341389,326.385041 843.705879,290.150763 829.083159,290.003683 829.075013,290.813573 821.918649,290.741602 821.651546,317.301571 825.061436,317.335864 824.972286,326.200281 843.341389,326.385041"/>
    <poly id="173542050" type="amenity.bank" color="237,199,199" fill="1" layer="-1.00" shape="788.316811,344.915994 759.917250,345.085464 760.133986,381.691732 788.533423,381.522265 788.316811,344.915994"/>
    <poly id="173542050#1" type="building.yes" color="255,230,230" fill="1" layer="-1.00" shape="788.316811,344.915994 759.917250,345.085464 760.133986,381.691732 788.533423,381.522265 788.316811,344.915994"/>
    <poly id="173542051" type="amenity.pharmacy" color="237,199,199" fill="1" layer="-1.00" shape="823.629913,397.142586 853.986875,396.970839 853.717730,352.408546 823.360495,352.591392 823.629913,397.142586"/>
    <poly id="173542051#1" type="building.yes" color="255,230,230" fill="1" layer="-1.00" shape="823.629913,397.142586 853.986875,396.970839 853.717730,352.408546 823.360495,352.591392 823.629913,397.142586"/>
    <poly id="173542052" type="building.yes" color="255,230,230" fill="1" layer="-1.00" shape="921.698703,366.684760 921.829176,353.726510 914.381720,350.899839 916.180785,172.202499 909.531961,171.858177 903.794014,164.621620 875.975976,176.480140 876.156208,185.857661 867.540400,189.088525 867.221209,248.102342 876.869644,253.159123 877.066505,260.883581 884.780245,264.545060 883.989536,371.275950 907.153121,380.884818 921.698703,366.684760"/>
    <poly id="208651166" type="leisure.track" color="207,245,201" fill="1" layer="-2.00" shape="736.126622,1408.007922 736.337586,1308.583025 739.184670,1294.076498 749.196833,1282.216149 757.376162,1278.237402 768.255170,1276.183138 780.225007,1278.389444 790.241856,1285.447063 797.171294,1295.669157 799.425611,1310.171494 799.204473,1407.011050 797.788902,1416.550064 793.659995,1425.529205 784.943076,1434.539879 773.084765,1438.881044 759.179357,1438.940963 746.770971,1431.925909 739.056064,1420.553119 736.126622,1408.007922"/>
    <poly id="208651168" type="leisure.pitch" color="207,245,201" fill="1" layer="-2.00" shape="620.187946,1305.341700 619.495624,1269.307593 670.112242,1269.272034 720.728981,1269.225687 720.225159,1306.146532 620.187946,1305.341700"/>
    <poly id="208651168#1" type="sport.tennis" color="79,230,125" fill="1" layer="-2.00" shape="620.187946,1305.341700 619.495624,1269.307593 670.112242,1269.272034 720.728981,1269.225687 720.225159,1306.146532 620.187946,1305.341700"/>
    <poly id="215180163" type="amenity.fuel" color="237,199,199" fill="1" layer="-1.00" shape="706.994550,472.751309 718.675299,472.990683 719.012575,457.049822 707.331914,456.799353 706.994550,472.751309"/>
    <poly id="215180163#1" type="building.roof" color="255,230,230" fill="1" layer="-1.00" shape="706.994550,472.751309 718.675299,472.990683 719.012575,457.049822 707.331914,456.799353 706.994550,472.751309"/>
    <poly id="220407350" type="building.school" color="255,230,230" fill="1" layer="-1.00" shape="1475.698999,808.546778 1502.108634,808.814520 1502.216289,798.197175 1513.897830,798.315630 1513.790159,808.932975 1521.388907,809.010037 1550.446592,809.304789 1553.156635,809.332284 1553.028315,821.979906 1578.419433,822.237557 1578.658133,798.717417 1586.788274,798.799932 1586.865183,791.222453 1578.735035,791.139939 1579.040502,761.040818 1553.897178,760.785685 1553.589325,791.128881 1541.146126,791.002645 1541.453934,760.659449 1514.796166,760.389070 1514.490930,790.488189 1502.295709,790.364526 1502.600901,760.265407 1476.191113,759.997666 1475.698999,808.546778"/>
    <poly id="222664523" type="building.house" color="255,230,230" fill="1" layer="-1.00" shape="1787.790303,1271.982119 1792.606309,1287.853399 1807.753632,1283.280841 1802.054627,1264.537909 1795.844615,1266.416436 1798.107146,1273.851297 1799.111019,1273.550838 1800.251026,1277.279453 1796.004490,1278.556610 1793.476120,1270.264686 1787.790303,1271.982119"/>
    <poly id="222664525" type="building.house" color="255,230,230" fill="1" layer="-1.00" shape="1641.281837,1292.872373 1641.771636,1273.426834 1648.713616,1273.597213 1648.492868,1282.249506 1647.439135,1282.227706 1647.351963,1285.577679 1651.203581,1285.683381 1651.426022,1276.864671 1658.040332,1277.031729 1657.627238,1293.282526 1641.281837,1292.872373"/>
    <poly id="222664535" type="building.house" color="255,230,230" fill="1" layer="-1.00" shape="1753.730483,1290.808751 1768.912003,1288.965979 1766.907438,1272.712778 1759.653636,1273.593208 1760.381657,1279.514548 1752.462771,1280.476983 1753.730483,1290.808751"/>
    <poly id="222664542" type="building.house" color="255,230,230" fill="1" layer="-1.00" shape="1783.201813,1302.514805 1797.751021,1298.402157 1802.394214,1314.715509 1795.421735,1316.675039 1793.429455,1309.664560 1785.844003,1311.806486 1783.201813,1302.514805"/>
    <poly id="222664549" type="building.house" color="255,230,230" fill="1" layer="-1.00" shape="1824.653187,1264.057810 1832.065030,1260.704734 1829.595657,1255.320436 1836.286795,1252.292894 1843.269768,1267.576011 1829.175658,1273.956710 1824.653187,1264.057810"/>
    <poly id="222664551" type="building.house" color="255,230,230" fill="1" layer="-1.00" shape="1821.559554,1310.427972 1816.416450,1295.374415 1802.854338,1299.963090 1806.260190,1309.928284 1812.836875,1307.698439 1814.574032,1312.797890 1821.559554,1310.427972"/>
    <poly id="222664553" type="building.house" color="255,230,230" fill="1" layer="-1.00" shape="1677.882950,1290.636786 1678.120044,1275.149794 1685.691352,1275.271121 1685.596507,1281.117517 1692.618860,1281.222176 1692.467847,1290.851588 1677.882950,1290.636786"/>
    <poly id="222664558" type="building.house" color="255,230,230" fill="1" layer="-1.00" shape="1809.338411,1279.857345 1824.094971,1275.391795 1821.077879,1265.519316 1813.242045,1267.891676 1811.767956,1263.050102 1804.838356,1265.143209 1809.338411,1279.857345"/>
    <poly id="222664560" type="building.house" color="255,230,230" fill="1" layer="-1.00" shape="1858.828721,1294.774342 1852.237945,1279.251101 1838.433108,1285.057760 1841.927393,1293.292961 1849.781559,1289.988787 1852.878066,1297.276819 1858.828721,1294.774342"/>
    <poly id="222664565" type="building.house" color="255,230,230" fill="1" layer="-1.00" shape="1660.062966,1290.655434 1675.579529,1290.702143 1675.631936,1274.214674 1668.830185,1274.189940 1668.808980,1282.378247 1660.085290,1282.356183 1660.062966,1290.655434"/>
    <poly id="222664566" type="building.house" color="255,230,230" fill="1" layer="-1.00" shape="1622.484113,1288.875673 1638.318812,1288.992117 1638.426394,1274.912946 1630.659581,1274.856249 1630.625843,1279.050028 1622.557935,1278.990281 1622.484113,1288.875673"/>
    <poly id="222664568" type="building.house" color="255,230,230" fill="1" layer="-1.00" shape="1772.398958,1287.481361 1787.044071,1284.390462 1783.451578,1267.521938 1776.910129,1268.897806 1778.110321,1274.546563 1770.006635,1276.261600 1772.398958,1287.481361"/>
    <poly id="222664570" type="building.house" color="255,230,230" fill="1" layer="-1.00" shape="1826.630009,1309.125929 1820.216189,1293.615611 1833.459126,1288.191547 1836.674885,1295.946800 1830.031110,1298.675243 1833.238125,1306.419311 1826.630009,1309.125929"/>
    <poly id="222664581" type="building.house" color="255,230,230" fill="1" layer="-1.00" shape="1697.349851,1293.275660 1697.556194,1280.817442 1705.579146,1280.943378 1705.701529,1274.131948 1713.060185,1274.262234 1712.768542,1291.623822 1705.241640,1291.491826 1705.204530,1293.399885 1697.349851,1293.275660"/>
    <poly id="222664582" type="building.house" color="255,230,230" fill="1" layer="-1.00" shape="1714.711242,1291.321801 1714.782408,1280.837219 1723.054001,1280.899126 1723.093255,1275.296267 1731.037187,1275.354850 1730.907619,1294.193797 1722.529656,1294.141896 1722.548889,1291.379296 1714.711242,1291.321801"/>
    <poly id="222664585" type="building.house" color="255,230,230" fill="1" layer="-1.00" shape="1605.254792,1290.908732 1618.327253,1290.919423 1618.335948,1283.086048 1620.895513,1283.089850 1620.899793,1273.947154 1613.814430,1273.941776 1613.812769,1280.210749 1605.265970,1280.212729 1605.254792,1290.908732"/>
    <poly id="222664586" type="building.house" color="255,230,230" fill="1" layer="-1.00" shape="1734.722401,1291.824852 1733.892835,1274.984448 1741.832425,1274.599175 1742.104580,1280.060960 1749.397237,1279.713497 1750.051467,1292.890584 1742.625871,1293.247789 1742.537880,1291.449413 1734.722401,1291.824852"/>
    <poly id="222664589" type="building.house" color="255,230,230" fill="1" layer="-1.00" shape="1837.300183,1249.318504 1845.342110,1266.720562 1853.119197,1263.160408 1852.113832,1260.997631 1858.645230,1258.001766 1853.783504,1247.500234 1846.255497,1250.951968 1844.071822,1246.214119 1837.300183,1249.318504"/>
    <poly id="225448333" type="building.house" color="255,230,230" fill="1" layer="-1.00" shape="1027.572775,1292.763467 1033.594738,1292.824198 1033.628305,1289.495875 1038.357319,1289.543570 1038.394581,1285.849132 1046.143437,1285.927288 1046.262393,1274.133932 1034.670087,1274.017013 1034.701864,1270.866201 1027.794300,1270.796539 1027.572775,1292.763467"/>
    <poly id="225448334" type="building.house" color="255,230,230" fill="1" layer="-1.00" shape="1069.864342,1289.184573 1079.997319,1289.098192 1079.947919,1283.461160 1085.705222,1283.419398 1085.603845,1271.523958 1077.295489,1271.595457 1077.327366,1274.580478 1069.736449,1274.648128 1069.864342,1289.184573"/>
    <poly id="225448394" type="building.house" color="255,230,230" fill="1" layer="-1.00" shape="1144.640728,1284.901990 1154.108964,1284.864464 1154.129053,1289.890947 1159.027001,1289.873842 1158.967080,1274.761110 1151.633428,1274.786902 1151.625680,1272.046226 1142.936744,1272.091625 1142.978727,1281.967080 1144.626138,1281.961525 1144.640728,1284.901990"/>
    <poly id="225448395" type="building.house" color="255,230,230" fill="1" layer="-1.00" shape="1088.317034,1284.388876 1103.689090,1284.710453 1103.951267,1271.897752 1097.912136,1271.781320 1097.829561,1275.575161 1088.496393,1275.392204 1088.317034,1284.388876"/>
    <poly id="225448396" type="building.house" color="255,230,230" fill="1" layer="-1.00" shape="1179.838426,1283.926042 1195.703721,1283.642517 1195.500153,1272.234242 1186.845518,1272.390898 1186.824218,1270.992645 1179.604568,1271.130520 1179.838426,1283.926042"/>
    <poly id="225448397" type="building.house" color="255,230,230" fill="1" layer="-1.00" shape="1107.124577,1283.047513 1112.440433,1282.868166 1112.652248,1289.083806 1122.353642,1288.760114 1121.805120,1272.910145 1114.867852,1273.150787 1114.792613,1270.953111 1106.712492,1271.226604 1107.124577,1283.047513"/>
    <poly id="225448398" type="building.house" color="255,230,230" fill="1" layer="-1.00" shape="1124.987598,1284.026719 1124.895147,1273.884463 1131.857189,1273.821608 1131.844848,1272.412350 1133.775760,1272.398560 1133.759044,1270.545436 1140.942486,1270.484825 1141.072940,1283.878459 1124.987598,1284.026719"/>
    <poly id="225448399" type="building.house" color="255,230,230" fill="1" layer="-1.00" shape="1161.470872,1289.055265 1171.726937,1289.059003 1171.732976,1283.200618 1177.250726,1283.200880 1177.249583,1271.040155 1168.986286,1271.034350 1168.986520,1274.518352 1161.476087,1274.509063 1161.470872,1289.055265"/>
    <poly id="225448617" type="building.house" color="255,230,230" fill="1" layer="-1.00" shape="1289.670473,1284.847735 1305.499005,1284.697193 1305.403530,1274.000120 1298.476905,1274.063188 1298.458217,1271.533215 1289.547430,1271.620600 1289.670473,1284.847735"/>
    <poly id="225448618" type="building.house" color="255,230,230" fill="1" layer="-1.00" shape="1308.578632,1290.198456 1323.918400,1290.209437 1323.925525,1272.001717 1315.724217,1271.996394 1315.726074,1275.313981 1308.578728,1275.308234 1308.578632,1290.198456"/>
    <poly id="225448619" type="building.house" color="255,230,230" fill="1" layer="-1.00" shape="1253.292577,1285.167746 1268.600183,1284.856529 1268.416870,1275.833997 1260.665645,1275.988618 1260.595949,1272.370765 1253.030693,1272.527273 1253.292577,1285.167746"/>
    <poly id="225448620" type="building.house" color="255,230,230" fill="1" layer="-1.00" shape="1326.854469,1285.390396 1342.603524,1285.216929 1342.476827,1274.109003 1333.707623,1274.208870 1333.682657,1272.300183 1326.702671,1272.384879 1326.854469,1285.390396"/>
    <poly id="225448621" type="building.house" color="255,230,230" fill="1" layer="-1.00" shape="1214.447273,1285.130112 1214.611757,1272.360804 1205.880110,1272.250369 1205.852193,1275.012877 1198.245241,1274.913815 1198.117553,1284.920704 1214.447273,1285.130112"/>
    <poly id="225448622" type="building.house" color="255,230,230" fill="1" layer="-1.00" shape="1346.786978,1290.163508 1357.033406,1290.245044 1357.084079,1284.364916 1362.565846,1284.420415 1362.680436,1272.227567 1354.010440,1272.150888 1353.980340,1275.124190 1346.913257,1275.063745 1346.786978,1290.163508"/>
    <poly id="225448623" type="building.house" color="255,230,230" fill="1" layer="-1.00" shape="1364.906695,1290.280374 1375.621921,1290.422157 1375.708817,1284.464727 1380.862805,1284.528014 1381.027973,1272.590876 1373.190877,1272.478229 1373.134858,1276.261244 1365.102824,1276.157726 1364.906695,1290.280374"/>
    <poly id="225448624" type="building.house" color="255,230,230" fill="1" layer="-1.00" shape="1235.045185,1282.786341 1241.840197,1282.599839 1242.040474,1289.947114 1250.873107,1289.703551 1250.439393,1273.910206 1243.484969,1274.095090 1243.428598,1271.786647 1234.746608,1272.020645 1235.045185,1282.786341"/>
    <poly id="225448625" type="building.house" color="255,230,230" fill="1" layer="-1.00" shape="1271.833636,1290.037564 1281.726390,1290.059953 1281.749096,1284.312690 1287.452707,1284.326001 1287.479527,1272.043503 1279.127894,1272.014504 1279.112615,1275.276440 1271.876823,1275.258734 1271.833636,1290.037564"/>
    <poly id="225448626" type="building.house" color="255,230,230" fill="1" layer="-1.00" shape="1216.461927,1282.964652 1222.820870,1282.984542 1222.792935,1289.253242 1232.428757,1289.284071 1232.486109,1274.849348 1224.958187,1274.817635 1224.969520,1271.944004 1216.511731,1271.902899 1216.461927,1282.964652"/>
    <poly id="225448681" type="building.house" color="255,230,230" fill="1" layer="-1.00" shape="1475.116677,1285.372070 1491.091271,1285.667182 1491.282088,1275.583259 1483.604737,1275.438842 1483.657626,1272.843019 1475.351506,1272.692235 1475.116677,1285.372070"/>
    <poly id="225448682" type="building.house" color="255,230,230" fill="1" layer="-1.00" shape="1383.878583,1285.834542 1399.781766,1286.184234 1400.000501,1275.956353 1392.349831,1275.801194 1392.401680,1273.305221 1384.157890,1273.121872 1383.878583,1285.834542"/>
    <poly id="225448683" type="building.house" color="255,230,230" fill="1" layer="-1.00" shape="1420.633950,1284.975241 1436.212279,1285.044322 1436.261188,1272.351508 1428.476440,1272.317008 1428.468659,1273.959071 1420.683912,1273.924579 1420.633950,1284.975241"/>
    <poly id="225448684" type="building.house" color="255,230,230" fill="1" layer="-1.00" shape="1401.808295,1290.720650 1412.188348,1290.725939 1412.190195,1284.423685 1417.265156,1284.419620 1417.271195,1272.458678 1408.804209,1272.450572 1408.799983,1275.490710 1401.820896,1275.486588 1401.808295,1290.720650"/>
    <poly id="225448685" type="building.house" color="255,230,230" fill="1" layer="-1.00" shape="1438.405294,1284.511768 1444.100614,1284.469624 1444.159384,1290.905639 1454.504914,1290.821866 1454.368186,1275.475332 1446.839360,1275.532174 1446.811213,1272.192127 1438.299160,1272.261204 1438.405294,1284.511768"/>
    <poly id="225448686" type="building.house" color="255,230,230" fill="1" layer="-1.00" shape="1456.852133,1291.677823 1466.973681,1291.846992 1467.073434,1285.501348 1472.492873,1285.589573 1472.682265,1273.896781 1464.429169,1273.757640 1464.390877,1275.787738 1457.111814,1275.669573 1456.852133,1291.677823"/>
    <poly id="225448687" type="building.house" color="255,230,230" fill="1" layer="-1.00" shape="1493.464669,1284.814700 1496.510967,1284.856686 1496.420948,1291.113665 1509.119658,1291.297925 1509.354976,1275.955160 1502.049233,1275.847782 1502.097323,1272.852470 1493.649171,1272.733514 1493.464669,1284.814700"/>
    <poly id="225448715" type="building.house" color="255,230,230" fill="1" layer="-1.00" shape="1512.175912,1285.991960 1527.445413,1285.947124 1527.409286,1275.539127 1518.986242,1275.564642 1518.978839,1272.801774 1512.141216,1272.821186 1512.175912,1285.991960"/>
    <poly id="225448716" type="building.house" color="255,230,230" fill="1" layer="-1.00" shape="1548.471553,1285.927438 1562.603681,1286.248374 1562.896281,1273.125301 1556.184328,1272.979519 1556.137946,1274.931866 1548.717751,1274.756712 1548.471553,1285.927438"/>
    <poly id="225448717" type="building.house" color="255,230,230" fill="1" layer="-1.00" shape="1565.124258,1285.730272 1564.991742,1273.479434 1573.769700,1273.390994 1573.799823,1276.531342 1580.584760,1276.467064 1580.745050,1291.214685 1571.037022,1291.315868 1570.979211,1285.667643 1565.124258,1285.730272"/>
    <poly id="225448718" type="building.house" color="255,230,230" fill="1" layer="-1.00" shape="1530.185637,1292.587872 1540.034455,1292.576835 1540.029456,1286.085884 1545.883733,1286.089805 1545.883689,1273.873598 1537.292494,1273.886293 1537.296401,1276.993088 1530.184475,1276.987511 1530.185637,1292.587872"/>
    <poly id="225699641" type="building.house" color="255,230,230" fill="1" layer="-1.00" shape="1131.176446,1233.349302 1139.049335,1233.428796 1139.099859,1228.425218 1150.187444,1228.537183 1150.333210,1214.103358 1143.053649,1214.029846 1143.027658,1216.603748 1133.374715,1216.506278 1133.286556,1225.237577 1131.258554,1225.217101 1131.176446,1233.349302"/>
    <poly id="225699642" type="building.house" color="255,230,230" fill="1" layer="-1.00" shape="879.078077,1289.525296 879.038922,1291.655244 886.291174,1291.794827 886.607621,1276.197696 878.230775,1276.035697 878.355308,1269.823453 870.819761,1269.669931 870.639185,1278.810830 871.808044,1278.833691 871.649611,1286.654446 872.800758,1286.677128 872.746830,1289.394991 879.078077,1289.525296"/>
    <poly id="225699643" type="building.house" color="255,230,230" fill="1" layer="-1.00" shape="946.799224,1288.387632 956.266666,1288.427542 956.267610,1290.091882 962.272198,1290.119099 962.332142,1272.744097 956.309830,1272.716702 956.292913,1277.032694 953.830764,1277.030077 953.853220,1270.406270 946.865506,1270.380249 946.799224,1288.387632"/>
    <poly id="225699644" type="building.house" color="255,230,230" fill="1" layer="-1.00" shape="928.017849,1286.256716 940.682474,1286.306622 940.696615,1283.144538 944.256885,1283.158214 944.322983,1270.443399 936.892589,1270.401831 936.857827,1277.369476 933.988311,1277.362761 934.010692,1272.503143 928.077051,1272.465566 928.017849,1286.256716"/>
    <poly id="225699645" type="building.house" color="255,230,230" fill="1" layer="-1.00" shape="889.274344,1288.429628 905.099378,1288.622255 905.312515,1270.094863 898.024263,1270.010379 897.931594,1277.454548 899.454799,1277.469885 899.418158,1281.108851 894.981383,1281.064177 895.010985,1278.124160 896.932702,1278.143509 896.991603,1273.173304 889.455389,1273.086331 889.274344,1288.429628"/>
    <poly id="225699646" type="building.house" color="255,230,230" fill="1" layer="-1.00" shape="908.071191,1287.265239 924.870592,1287.445525 925.010665,1275.297327 916.261202,1275.198110 916.316733,1269.684190 908.266764,1269.603122 908.071191,1287.265239"/>
    <poly id="225699647" type="building.house" color="255,230,230" fill="1" layer="-1.00" shape="988.406653,1285.899892 1006.384557,1286.025647 1006.486002,1270.692640 999.923593,1270.648672 999.897553,1274.110216 988.490774,1274.039613 988.406653,1285.899892"/>
    <poly id="225699648" type="building.house" color="255,230,230" fill="1" layer="-1.00" shape="964.884868,1289.246689 982.615024,1289.347705 982.684893,1277.143321 973.226516,1277.081281 973.259654,1271.156600 964.987843,1271.117624 964.884868,1289.246689"/>
    <poly id="225699649" type="building.house" color="255,230,230" fill="1" layer="-1.00" shape="923.611724,1214.579582 932.326721,1214.589694 932.325658,1216.453732 941.031910,1216.452669 941.024367,1233.905865 929.076655,1233.896469 929.076070,1222.523543 923.611421,1222.523980 923.611724,1214.579582"/>
    <poly id="225699650" type="building.house" color="255,230,230" fill="1" layer="-1.00" shape="1039.136720,1233.341443 1046.752787,1233.418260 1046.811761,1227.571507 1057.846209,1227.682814 1057.972902,1215.123945 1040.863281,1214.951363 1040.760449,1225.147123 1039.219522,1225.131582 1039.136720,1233.341443"/>
    <poly id="225699651" type="building.house" color="255,230,230" fill="1" layer="-1.00" shape="901.187428,1226.780754 912.036571,1226.823429 912.025211,1232.348889 912.273176,1232.351387 919.863233,1232.372348 919.895576,1223.884592 917.619498,1223.872765 917.659771,1214.597306 901.231054,1214.531727 901.187428,1226.780754"/>
    <poly id="225699652" type="building.house" color="255,230,230" fill="1" layer="-1.00" shape="946.924152,1232.911226 954.355026,1232.908424 954.361272,1227.893306 966.185011,1227.901489 966.191272,1214.975256 948.982563,1214.968297 948.979493,1224.943150 946.924701,1224.944639 946.924152,1232.911226"/>
    <poly id="225699653" type="building.house" color="255,230,230" fill="1" layer="-1.00" shape="1009.206382,1289.005509 1019.569160,1288.965754 1019.547796,1285.814406 1025.163067,1285.804457 1025.095055,1270.591791 1016.539072,1270.627567 1016.560884,1273.734537 1009.608148,1273.753199 1009.642737,1281.742333 1009.173378,1281.737601 1009.206382,1289.005509"/>
    <poly id="225699654" type="building.house" color="255,230,230" fill="1" layer="-1.00" shape="992.951905,1233.008913 1000.781407,1232.999075 1000.771647,1227.817362 1011.771789,1227.817307 1011.777849,1228.094756 1011.770514,1215.645492 995.491675,1215.647813 995.508924,1224.480031 992.957978,1224.498699 992.951905,1233.008913"/>
    <poly id="225699655" type="building.house" color="255,230,230" fill="1" layer="-1.00" shape="1015.726348,1222.986239 1020.739012,1223.014591 1020.675579,1234.575499 1032.985937,1234.633066 1033.067557,1217.757580 1024.211202,1217.712651 1024.215305,1215.549063 1015.757464,1215.508163 1015.726348,1222.986239"/>
    <poly id="225699656" type="building.house" color="255,230,230" fill="1" layer="-1.00" shape="1084.949155,1234.591401 1092.724627,1234.669868 1092.777699,1229.411119 1103.927273,1229.523648 1104.049331,1217.430744 1086.851155,1217.257174 1086.764276,1225.866434 1085.037376,1225.849008 1084.949155,1234.591401"/>
    <poly id="225699657" type="building.house" color="255,230,230" fill="1" layer="-1.00" shape="1107.854897,1227.366376 1119.162984,1227.569290 1119.063040,1233.082764 1126.589877,1233.225326 1126.747981,1224.583497 1124.534117,1224.550050 1124.692666,1215.863844 1108.071464,1215.562909 1107.854897,1227.366376"/>
    <poly id="225699658" type="building.house" color="255,230,230" fill="1" layer="-1.00" shape="878.452565,1232.887412 886.024909,1232.908164 886.044102,1227.482643 897.079217,1227.527171 897.119039,1215.655355 880.238563,1215.596364 880.203803,1224.328196 878.485647,1224.321996 878.452565,1232.887412"/>
    <poly id="225699659" type="building.house" color="255,230,230" fill="1" layer="-1.00" shape="1064.805812,1226.987433 1072.607859,1227.066149 1072.548643,1232.935091 1080.102720,1233.011312 1080.188473,1224.512996 1077.372296,1224.484580 1077.451329,1216.651928 1064.911360,1216.525407 1064.805812,1226.987433"/>
    <poly id="225699660" type="building.house" color="255,230,230" fill="1" layer="-1.00" shape="969.868193,1228.903917 981.133003,1229.006348 981.079331,1234.331663 988.465254,1234.395012 988.536333,1225.585874 986.366526,1225.575099 986.435702,1216.954567 969.972345,1216.810835 969.868193,1228.903917"/>
    <poly id="225699989" type="building.house" color="255,230,230" fill="1" layer="-1.00" shape="1432.409856,1234.631992 1439.954968,1234.719544 1440.010256,1230.137642 1447.820937,1230.238987 1448.012985,1214.784831 1432.152371,1214.590820 1432.037333,1223.321852 1439.998571,1223.424715 1439.971363,1226.109563 1432.514915,1226.011815 1432.409856,1234.631992"/>
    <poly id="225699990" type="building.house" color="255,230,230" fill="1" layer="-1.00" shape="1251.363487,1233.320955 1259.388499,1233.246762 1259.343693,1228.919047 1267.377677,1228.833857 1267.229276,1213.731321 1250.621068,1213.896247 1250.701279,1221.730512 1259.240169,1221.639323 1259.275565,1225.145873 1251.285857,1225.231518 1251.363487,1233.320955"/>
    <poly id="225699991" type="building.house" color="255,230,230" fill="1" layer="-1.00" shape="1563.342055,1236.181626 1571.179412,1236.272261 1571.244495,1229.859691 1581.703319,1229.965847 1581.842582,1217.118608 1572.968952,1217.028540 1572.932733,1219.724393 1562.482865,1219.607243 1562.374256,1229.436802 1563.419253,1229.447407 1563.342055,1236.181626"/>
    <poly id="225699992" type="building.house" color="255,230,230" fill="1" layer="-1.00" shape="1542.105267,1230.762319 1549.554996,1230.649282 1549.618602,1234.855142 1557.723776,1234.737667 1557.610569,1226.692241 1550.612713,1226.787666 1550.565768,1223.558383 1558.653129,1223.451823 1558.540034,1215.395303 1541.886852,1215.625768 1542.105267,1230.762319"/>
    <poly id="225699993" type="building.house" color="255,230,230" fill="1" layer="-1.00" shape="1342.113220,1233.906155 1349.898339,1233.907290 1349.889453,1229.535555 1357.842951,1229.527306 1357.821841,1214.115377 1338.495983,1214.141661 1338.509307,1221.575812 1346.126175,1221.575240 1346.134053,1226.046826 1342.104167,1226.050417 1342.113220,1233.906155"/>
    <poly id="225699994" type="building.house" color="255,230,230" fill="1" layer="-1.00" shape="1386.069855,1229.502441 1393.689976,1229.180175 1393.868675,1233.398293 1400.850831,1233.102859 1400.557074,1226.253930 1393.291410,1226.557589 1393.120556,1222.439410 1402.317822,1222.055456 1401.967040,1213.841197 1385.433245,1214.528100 1386.069855,1229.502441"/>
    <poly id="225699995" type="building.house" color="255,230,230" fill="1" layer="-1.00" shape="1226.635017,1235.101445 1234.411388,1235.091288 1234.403575,1227.978966 1245.147017,1227.965528 1245.129139,1218.345511 1243.951191,1218.344697 1243.941678,1215.781531 1236.067761,1215.801788 1236.071561,1218.054222 1226.603470,1218.069468 1226.635017,1235.101445"/>
    <poly id="225699996" type="building.house" color="255,230,230" fill="1" layer="-1.00" shape="1206.479231,1233.122446 1214.247308,1233.056709 1214.211895,1228.673612 1222.644282,1228.603501 1222.515979,1213.257069 1205.757558,1213.387280 1205.818867,1221.343403 1214.773759,1221.278564 1214.807043,1224.995907 1206.418933,1225.066473 1206.479231,1233.122446"/>
    <poly id="225699997" type="building.house" color="255,230,230" fill="1" layer="-1.00" shape="1475.343247,1235.067134 1482.943070,1234.999941 1482.877721,1228.341947 1487.589963,1228.300960 1487.636307,1233.338811 1493.624021,1233.288569 1493.504864,1220.582953 1491.751056,1220.598456 1491.706595,1216.248549 1484.779917,1216.311464 1484.801137,1218.586267 1475.190557,1218.677456 1475.343247,1235.067134"/>
    <poly id="225699998" type="building.house" color="255,230,230" fill="1" layer="-1.00" shape="1517.979107,1236.020969 1527.103045,1235.880511 1526.932950,1225.582112 1535.587424,1225.447996 1535.449126,1216.381526 1517.670571,1216.667195 1517.979107,1236.020969"/>
    <poly id="225699999" type="building.house" color="255,230,230" fill="1" layer="-1.00" shape="1365.034724,1224.274254 1372.200613,1224.202567 1372.299939,1234.511337 1380.679302,1234.429753 1380.480090,1214.744233 1364.943778,1214.886500 1365.034724,1224.274254"/>