<?xml version="1.0" encoding="UTF-8"?>
<!-- generated on 2019-12-23 11:55:55.240405 by $Id$
  options: 
-->
<routes xmlns:xsi="http://www.w3.org/2001/XMLSchema-instance" xsi:noNamespaceSchemaLocation="http://sumo.dlr.de/xsd/routes_file.xsd">
    <vType id="pt_bus" vClass="bus"/>
    <vType id="pt_tram" vClass="tram"/>
    <vType id="pt_train" vClass="rail"/>
    <vType id="pt_subway" vClass="rail_urban"/>
    <vType id="pt_light_rail" vClass="rail_urban"/>
    <vType id="pt_monorail" vClass="rail"/>
    <vType id="pt_trolleybus" vClass="bus"/>
    <vType id="pt_aerialway" vClass="bus"/>
    <vType id="pt_ferry" vClass="ship"/>
    <route id="pt_bus_54:0" edges="-596676392 -339412128#1 -339412128#0 -339412130#1 -339412130#0 -339412120#1 -339412120#0 -339412118 339412126#0 339412126#1 339412127#0 339412127#1 261413859#0 261413859#1 261413859#3 261413859#4 339412115 339412117 415820809 52113165#0 52113165#1 52113165#2 615027881" >
        <stop busStop="6821811978" duration="30.00" until="87.0"/> <!-- Hollenbeck Avenue & West Fremont Avenue -->
        <stop busStop="6821811975" duration="30.00" until="177.0"/> <!-- Hollenbeck Avenue & Torrington Drive -->
    </route>
    <route id="pt_bus_53:0" edges="-340316596#1 -340316595 -129579899#1 -129579899#0 -340316604#1 -340316604#0 -340316586#10 -340316586#9 -340316586#8 -340316586#7 -340316586#6 -340316586#5 -340316586#4 -340316586#3 -340316586#2 -340316586#1 -340316586#0 -340316590#1 -340316590#0 -415820820#1 -415820820#0 -52238224#1 -52238224#0" >
        <stop busStop="-6831041146" duration="30.00" until="57.0"/> <!-- South Mary Avenue & West Fremont Avenue -->
        <stop busStop="-6831041144" duration="30.00" until="128.0"/> <!-- South Mary Avenue & Ticonderoga Drive -->
        <stop busStop="-6831041142" duration="30.00" until="198.0"/> <!-- West Remington Drive & South Mary Avenue -->
        <stop busStop="-6831041141" duration="30.00" until="258.0"/> <!-- West Remington Drive & Mango Avenue -->
    </route>
    <route id="pt_bus_53:1" edges="52238224#0 52238224#1 415820820#0 415820820#1 340316590#0 340316590#1 340316586#0 340316586#1 340316586#2 340316586#3 340316586#4 340316586#5 340316586#6 340316586#7 340316586#8 340316586#9 340316586#10 340316604#0 340316604#1 129579899#0 129579899#1 340316595 340316596#1" >
        <stop busStop="6831041140" duration="30.00" until="39.0"/> <!-- West Remington Drive & Mango Avenue -->
        <stop busStop="6831041143" duration="30.00" until="112.0"/> <!-- South Mary Avenue & Rockefeller Drive -->
        <stop busStop="6831041145" duration="30.00" until="179.0"/> <!-- South Mary Avenue & Ticonderoga Drive -->
        <stop busStop="3475326108" duration="30.00" until="282.0"/> <!-- South Mary Avenue & West Fremont Avenue -->
    </route>
    <route id="pt_bus_55:0" edges="334904786#0 334904786#1 334904786#2 409491762 236020229#0 236020229#1 236020229#2 238237856 339412127#0 339412127#1 261413859#0 261413859#1 261413859#3 261413859#4 339412115 339412117 415820809 52113165#0 52113165#1 52113165#2 339412144 339412142" >
        <stop busStop="6821811979" duration="30.00" until="42.0"/> <!-- West Fremont Avenue & Cordilleras Avenue -->
        <stop busStop="6821811978" duration="30.00" until="106.0"/> <!-- Hollenbeck Avenue & West Fremont Avenue -->
        <stop busStop="6821811975" duration="30.00" until="192.0"/> <!-- Hollenbeck Avenue & Torrington Drive -->
    </route>
    <route id="pt_bus_55:1" edges="334904786#0 334904786#1 334904786#2 409491762 236020229#0 236020229#1 236020229#2 238237856 339412127#0 339412127#1 261413859#0 261413859#1 261413859#3 261413859#4 339412115 339412117 415820809 52113165#0 52113165#1 52113165#2 339412144 339412142" >
        <stop busStop="6821811979" duration="30.00" until="40.0"/> <!-- West Fremont Avenue & Cordilleras Avenue -->
        <stop busStop="6821811978" duration="30.00" until="104.0"/> <!-- Hollenbeck Avenue & West Fremont Avenue -->
        <stop busStop="6821811975" duration="30.00" until="180.0"/> <!-- Hollenbeck Avenue & Torrington Drive -->
    </route>
    <flow id="pt_bus_54:0" type="pt_bus" route="pt_bus_54:0" begin="15.0" end="3615.0" period="600" line="54:0" >
        <param key="name" value="VTA 54: De Anza College =&gt; Lockheed Martin"/>
        <param key="completeness" value="0.20"/>
    </flow>
    <flow id="pt_bus_53:0" type="pt_bus" route="pt_bus_53:0" begin="133.0" end="3733.0" period="600" line="53:0" >
        <param key="name" value="VTA 53: West Valley College =&gt; Sunnyvale Transit Center"/>
        <param key="completeness" value="0.08"/>
    </flow>
    <flow id="pt_bus_53:1" type="pt_bus" route="pt_bus_53:1" begin="165.0" end="3765.0" period="600" line="53:1" >
        <param key="name" value="VTA 53: Sunnyvale Transit Center =&gt; West Valley College"/>
        <param key="completeness" value="0.08"/>
    </flow>
    <flow id="pt_bus_55:0" type="pt_bus" route="pt_bus_55:0" begin="383.0" end="3983.0" period="600" line="55:0" >
        <param key="name" value="VTA 55: Fremont &amp; Sydney =&gt; Great America (peak hours)"/>
        <param key="completeness" value="0.09"/>
    </flow>
    <flow id="pt_bus_55:1" type="pt_bus" route="pt_bus_55:1" begin="441.0" end="4041.0" period="600" line="55:1" >
        <param key="name" value="VTA 55: De Anza College =&gt; Fremont &amp; Sydney =&gt; Great America (peak hours)"/>
        <param key="completeness" value="0.07"/>
    </flow>
</routes>
