<?xml version="1.0" encoding="UTF-8"?>

<!-- generated on Mon 23 Dec 2019 11:56:54 AM PST by Eclipse SUMO GUI Version v1_3_1+0817-d484d16121
-->

<configuration xmlns:xsi="http://www.w3.org/2001/XMLSchema-instance" xsi:noNamespaceSchemaLocation="http://sumo.dlr.de/xsd/sumoConfiguration.xsd">

    <input>
        <net-file value="/Users/charu/Projects/sumo_tutorials/remington_fremont_mary/net_file.net.xml"/>
        <route-files value="/Users/charu/Projects/sumo_tutorials/remington_fremont_mary/route_file.rou.xml,/Users/charu/Projects/sumo_tutorials/remington_fremont_mary/osm.passenger.trips.xml"/>
        <additional-files value="/Users/charu/Projects/sumo_tutorials/remington_fremont_mary/poly_file.poly.xml,/Users/charu/Projects/sumo_tutorials/remington_fremont_mary/stops.add.xml"/>
    </input>

    <processing>
        <ignore-route-errors value="true"/>
    </processing>

    <routing>
        <device.rerouting.adaptation-steps value="180"/>
    </routing>

    <report>
        <verbose value="true"/>
        <duration-log.statistics value="true"/>
        <no-step-log value="true"/>
    </report>

    <gui_only>
        <gui-settings-file value="/Users/charu/Projects/sumo_tutorials/remington_fremont_mary/osm.view.xml"/>
    </gui_only>

</configuration>
