<net xmlns:xsi="http://www.w3.org/2001/XMLSchema-instance" junctionCornerDetail="5" limitTurnSpeed="5.50" version="1.3" xsi:noNamespaceSchemaLocation="http://sumo.dlr.de/xsd/net_file.xsd">

    <location convBoundary="0.00,0.00,1104.45,1202.92" netOffset="-390685.42,-5819138.57" origBoundary="13.372213,52.511452,13.409154,52.523057" projParameter="+proj=utm +zone=33 +ellps=WGS84 +datum=WGS84 +units=m +no_defs" />

    <type allow="pedestrian" id="highway.bridleway" numLanes="1" oneway="1" priority="1" speed="2.78" width="2.00" />
    <type allow="bus" id="highway.bus_guideway" numLanes="1" oneway="1" priority="1" speed="27.78" />
    <type allow="bicycle" id="highway.cycleway" numLanes="1" oneway="0" priority="1" speed="8.33" width="1.00" />
    <type allow="pedestrian" id="highway.footway" numLanes="1" oneway="1" priority="1" speed="2.78" width="2.00" />
    <type allow="army" id="highway.ford" numLanes="1" oneway="0" priority="1" speed="2.78" />
    <type disallow="tram rail_urban rail rail_electric rail_fast ship" id="highway.living_street" numLanes="1" oneway="0" priority="2" speed="2.78" />
    <type allow="private emergency authority army vip passenger hov taxi bus coach delivery truck trailer motorcycle evehicle custom1 custom2" id="highway.motorway" numLanes="2" oneway="1" priority="14" speed="39.44" />
    <type allow="private emergency authority army vip passenger hov taxi bus coach delivery truck trailer motorcycle evehicle custom1 custom2" id="highway.motorway_link" numLanes="1" oneway="1" priority="9" speed="22.22" />
    <type allow="pedestrian bicycle" id="highway.path" numLanes="1" oneway="1" priority="1" speed="2.78" width="2.00" />
    <type allow="pedestrian" id="highway.pedestrian" numLanes="1" oneway="1" priority="1" speed="2.78" width="2.00" />
    <type disallow="tram rail_urban rail rail_electric rail_fast ship" id="highway.primary" numLanes="2" oneway="0" priority="12" speed="27.78" />
    <type disallow="tram rail_urban rail rail_electric rail_fast ship" id="highway.primary_link" numLanes="1" oneway="0" priority="7" speed="22.22" />
    <type allow="vip" id="highway.raceway" numLanes="2" oneway="0" priority="15" speed="83.33" />
    <type disallow="tram rail_urban rail rail_electric rail_fast ship" id="highway.residential" numLanes="1" oneway="0" priority="3" speed="13.89" />
    <type disallow="tram rail_urban rail rail_electric rail_fast ship" id="highway.secondary" numLanes="1" oneway="0" priority="11" speed="27.78" />
    <type disallow="tram rail_urban rail rail_electric rail_fast ship" id="highway.secondary_link" numLanes="1" oneway="0" priority="6" speed="22.22" />
    <type allow="pedestrian delivery bicycle" id="highway.service" numLanes="1" oneway="0" priority="1" speed="5.56" />
    <type allow="pedestrian" id="highway.stairs" numLanes="1" oneway="1" priority="1" speed="1.39" width="2.00" />
    <type allow="pedestrian" id="highway.step" numLanes="1" oneway="1" priority="1" speed="1.39" width="2.00" />
    <type allow="pedestrian" id="highway.steps" numLanes="1" oneway="1" priority="1" speed="1.39" width="2.00" />
    <type disallow="tram rail_urban rail rail_electric rail_fast ship" id="highway.tertiary" numLanes="1" oneway="0" priority="10" speed="22.22" />
    <type disallow="tram rail_urban rail rail_electric rail_fast ship" id="highway.tertiary_link" numLanes="1" oneway="0" priority="5" speed="22.22" />
    <type disallow="tram rail_urban rail rail_electric rail_fast ship" id="highway.track" numLanes="1" oneway="0" priority="1" speed="5.56" />
    <type disallow="pedestrian bicycle tram rail_urban rail rail_electric rail_fast ship" id="highway.trunk" numLanes="2" oneway="0" priority="13" speed="27.78" />
    <type disallow="pedestrian bicycle tram rail_urban rail rail_electric rail_fast ship" id="highway.trunk_link" numLanes="1" oneway="0" priority="8" speed="22.22" />
    <type disallow="tram rail_urban rail rail_electric rail_fast ship" id="highway.unclassified" numLanes="1" oneway="0" priority="4" speed="13.89" />
    <type disallow="tram rail_urban rail rail_electric rail_fast ship" id="highway.unsurfaced" numLanes="1" oneway="0" priority="1" speed="8.33" />
    <type allow="rail_fast" id="railway.highspeed" numLanes="1" oneway="1" priority="21" speed="69.44" />
    <type allow="rail_urban" id="railway.light_rail" numLanes="1" oneway="1" priority="19" speed="27.78" />
    <type allow="rail" id="railway.preserved" numLanes="1" oneway="1" priority="16" speed="27.78" />
    <type allow="rail" id="railway.rail" numLanes="1" oneway="1" priority="20" speed="44.44" />
    <type allow="rail_urban" id="railway.subway" numLanes="1" oneway="1" priority="18" speed="27.78" />
    <type allow="tram" id="railway.tram" numLanes="1" oneway="1" priority="17" speed="13.89" />

    <edge function="internal" id=":1217651538_0">
        <lane disallow="tram rail_urban rail rail_electric rail_fast ship" id=":1217651538_0_0" index="0" length="5.16" shape="387.86,1061.26 386.59,1060.54 385.41,1060.37 384.31,1060.73 383.31,1061.64" speed="5.17" />
    </edge>
    <edge function="internal" id=":1217651538_1">
        <lane disallow="tram rail_urban rail rail_electric rail_fast ship" id=":1217651538_1_0" index="0" length="10.36" shape="387.86,1061.26 385.87,1059.26 385.03,1057.09 385.32,1054.77 386.76,1052.28" speed="6.87" />
    </edge>
    <edge function="internal" id=":1217651538_2">
        <lane allow="pedestrian delivery bicycle" id=":1217651538_2_0" index="0" length="4.67" shape="387.86,1061.26 387.38,1059.90 387.54,1059.02 388.34,1058.62 389.78,1058.70" speed="3.65" />
    </edge>
    <edge function="internal" id=":1217651538_3">
        <lane allow="pedestrian delivery bicycle" id=":1217651538_3_0" index="0" length="5.06" shape="389.23,1054.32 388.53,1055.53 388.39,1056.66 388.81,1057.72 389.78,1058.70" speed="5.03" />
    </edge>
    <edge function="internal" id=":1217651538_4">
        <lane disallow="tram rail_urban rail rail_electric rail_fast ship" id=":1217651538_4_0" index="0" length="9.42" shape="389.23,1054.32 383.31,1061.64" speed="8.33" />
    </edge>
    <edge function="internal" id=":1217651538_5">
        <lane disallow="tram rail_urban rail rail_electric rail_fast ship" id=":1217651538_5_0" index="0" length="2.34" shape="389.23,1054.32 387.85,1054.74 386.98,1054.54" speed="3.65" />
    </edge>
    <edge function="internal" id=":1217651538_9">
        <lane disallow="tram rail_urban rail rail_electric rail_fast ship" id=":1217651538_9_0" index="0" length="2.34" shape="386.98,1054.54 386.62,1053.72 386.76,1052.28" speed="3.65" />
    </edge>
    <edge function="internal" id=":1217651538_6">
        <lane disallow="tram rail_urban rail rail_electric rail_fast ship" id=":1217651538_6_0" index="0" length="9.45" shape="380.83,1059.63 386.76,1052.28" speed="8.33" />
    </edge>
    <edge function="internal" id=":1217651538_7">
        <lane allow="pedestrian delivery bicycle" id=":1217651538_7_0" index="0" length="5.02" shape="380.83,1059.63 382.83,1057.79 384.99,1057.02" speed="6.95" />
    </edge>
    <edge function="internal" id=":1217651538_8">
        <lane disallow="tram rail_urban rail rail_electric rail_fast ship" id=":1217651538_8_0" index="0" length="2.34" shape="380.83,1059.63 382.20,1059.20 383.08,1059.39" speed="3.65" />
    </edge>
    <edge function="internal" id=":1217651538_10">
        <lane allow="pedestrian delivery bicycle" id=":1217651538_10_0" index="0" length="5.17" shape="384.99,1057.02 387.31,1057.32 389.78,1058.70" speed="6.95" />
    </edge>
    <edge function="internal" id=":1217651538_11">
        <lane disallow="tram rail_urban rail rail_electric rail_fast ship" id=":1217651538_11_0" index="0" length="2.34" shape="383.08,1059.39 383.45,1060.21 383.31,1061.64" speed="3.65" />
    </edge>
    <edge function="internal" id=":1349668349_0">
        <lane disallow="tram rail_urban rail rail_electric rail_fast ship" id=":1349668349_0_0" index="0" length="4.67" shape="901.64,31.63 903.07,31.49 903.89,31.85 904.09,32.73 903.66,34.11" speed="3.65" />
    </edge>
    <edge function="internal" id=":1371317063_0">
        <lane disallow="tram rail_urban rail rail_electric rail_fast ship" id=":1371317063_0_0" index="0" length="5.29" shape="532.67,847.93 528.11,845.23" speed="8.33" />
    </edge>
    <edge function="internal" id=":1371317063_1">
        <lane disallow="tram rail_urban rail rail_electric rail_fast ship" id=":1371317063_1_0" index="0" length="4.67" shape="532.67,847.93 532.03,846.64 532.08,845.74 532.82,845.25 534.26,845.16" speed="3.65" />
    </edge>
    <edge function="internal" id=":1371317063_2">
        <lane disallow="tram rail_urban rail rail_electric rail_fast ship" id=":1371317063_2_0" index="0" length="5.25" shape="529.75,842.48 534.26,845.16" speed="8.33" />
    </edge>
    <edge function="internal" id=":1371317063_3">
        <lane disallow="tram rail_urban rail rail_electric rail_fast ship" id=":1371317063_3_0" index="0" length="4.67" shape="529.75,842.48 530.37,843.78 530.30,844.68 529.55,845.16 528.11,845.23" speed="3.65" />
    </edge>
    <edge function="internal" id=":1449754450_0">
        <lane allow="pedestrian delivery bicycle" id=":1449754450_0_0" index="0" length="5.13" shape="474.55,856.94 473.17,856.59 472.05,856.80 471.20,857.55 470.61,858.85" speed="4.93" />
    </edge>
    <edge function="internal" id=":1449754450_1">
        <lane allow="pedestrian delivery bicycle" id=":1449754450_1_0" index="0" length="9.44" shape="474.55,856.94 465.82,853.37" speed="5.56" />
    </edge>
    <edge function="internal" id=":1449754450_2">
        <lane allow="pedestrian delivery bicycle" id=":1449754450_2_0" index="0" length="4.67" shape="474.55,856.94 473.75,855.74 473.68,854.85 474.35,854.26 475.76,853.98" speed="3.65" />
    </edge>
    <edge function="internal" id=":1449754450_3">
        <lane allow="pedestrian delivery bicycle" id=":1449754450_3_0" index="0" length="9.44" shape="467.03,850.41 475.76,853.98" speed="5.56" />
    </edge>
    <edge function="internal" id=":1449754450_4">
        <lane allow="pedestrian delivery bicycle" id=":1449754450_4_0" index="0" length="10.22" shape="467.03,850.41 469.27,851.76 470.62,853.62 471.06,855.98 470.61,858.85" speed="5.56" />
    </edge>
    <edge function="internal" id=":1449754450_5">
        <lane allow="pedestrian delivery bicycle" id=":1449754450_5_0" index="0" length="4.67" shape="467.03,850.41 467.84,851.60 467.90,852.49 467.23,853.08 465.82,853.37" speed="3.65" />
    </edge>
    <edge function="internal" id=":1449754450_6">
        <lane allow="pedestrian delivery bicycle" id=":1449754450_6_0" index="0" length="5.45" shape="467.53,857.96 467.80,856.37 467.61,855.07 466.95,854.07 465.82,853.37" speed="5.41" />
    </edge>
    <edge function="internal" id=":1449754450_7">
        <lane allow="pedestrian delivery bicycle" id=":1449754450_7_0" index="0" length="10.70" shape="467.53,857.96 468.76,855.25 470.54,853.68 472.88,853.25 475.76,853.98" speed="5.56" />
    </edge>
    <edge function="internal" id=":1449754450_8">
        <lane allow="pedestrian delivery bicycle" id=":1449754450_8_0" index="0" length="4.67" shape="467.53,857.96 468.64,857.03 469.52,856.87 470.17,857.47 470.61,858.85" speed="3.65" />
    </edge>
    <edge function="internal" id=":1457124706_0">
        <lane allow="pedestrian delivery bicycle" id=":1457124706_0_0" index="0" length="4.67" shape="454.73,803.36 455.64,802.24 456.48,801.92 457.23,802.40 457.91,803.68" speed="3.65" />
    </edge>
    <edge function="internal" id=":1457124739_0">
        <lane allow="pedestrian delivery bicycle" id=":1457124739_0_0" index="0" length="8.81" shape="455.07,848.98 453.04,847.82 451.66,846.28 450.94,844.33 450.86,842.00" speed="5.56" />
    </edge>
    <edge function="internal" id=":1457124739_1">
        <lane allow="pedestrian delivery bicycle" id=":1457124739_1_0" index="0" length="4.67" shape="455.07,848.98 454.26,847.79 454.19,846.90 454.86,846.31 456.28,846.02" speed="3.65" />
    </edge>
    <edge function="internal" id=":1457124739_2">
        <lane allow="pedestrian delivery bicycle" id=":1457124739_2_0" index="0" length="4.67" shape="454.05,842.32 454.09,843.56 454.47,844.58 455.20,845.41 456.28,846.02" speed="5.44" />
    </edge>
    <edge function="internal" id=":1457124739_3">
        <lane allow="pedestrian delivery bicycle" id=":1457124739_3_0" index="0" length="4.67" shape="454.05,842.32 453.13,843.43 452.30,843.75 451.54,843.27 450.86,842.00" speed="3.65" />
    </edge>
    <edge function="internal" id=":1457124764_0">
        <lane allow="pedestrian delivery bicycle" id=":1457124764_0_0" index="0" length="4.67" shape="496.43,862.42 497.24,863.61 497.30,864.50 496.63,865.09 495.22,865.38" speed="3.65" />
    </edge>
    <edge function="internal" id=":1472911019_0">
        <lane disallow="tram rail_urban rail rail_electric rail_fast ship" id=":1472911019_0_0" index="0" length="4.99" shape="889.90,795.42 885.63,792.82" speed="13.89" />
        <lane disallow="tram rail_urban rail rail_electric rail_fast ship" id=":1472911019_0_1" index="1" length="4.99" shape="891.56,792.69 887.30,790.09" speed="13.89" />
    </edge>
    <edge function="internal" id=":1473258656_0">
        <lane allow="pedestrian delivery bicycle" id=":1473258656_0_0" index="0" length="5.46" shape="670.17,932.41 668.95,931.89 667.75,931.93 666.57,932.51 665.42,933.65" speed="4.17" />
    </edge>
    <edge function="internal" id=":1473258656_1">
        <lane disallow="tram rail_urban rail rail_electric rail_fast ship" id=":1473258656_1_0" index="0" length="9.44" shape="670.17,932.41 662.23,927.31" speed="2.78" />
    </edge>
    <edge function="internal" id=":1473258656_2">
        <lane disallow="tram rail_urban rail rail_electric rail_fast ship" id=":1473258656_2_0" index="0" length="2.34" shape="670.17,932.41 669.60,931.09 669.69,930.20" speed="2.78" />
    </edge>
    <edge function="internal" id=":1473258656_9">
        <lane disallow="tram rail_urban rail rail_electric rail_fast ship" id=":1473258656_9_0" index="0" length="2.34" shape="669.69,930.20 670.46,929.74 671.90,929.72" speed="2.78" />
    </edge>
    <edge function="internal" id=":1473258656_3">
        <lane disallow="tram rail_urban rail rail_electric rail_fast ship" id=":1473258656_3_0" index="0" length="9.44" shape="663.96,924.62 671.90,929.72" speed="2.78" />
    </edge>
    <edge function="internal" id=":1473258656_4">
        <lane allow="pedestrian delivery bicycle" id=":1473258656_4_0" index="0" length="5.17" shape="663.96,924.62 666.21,926.57 667.13,928.55" speed="4.17" />
    </edge>
    <edge function="internal" id=":1473258656_5">
        <lane disallow="tram rail_urban rail rail_electric rail_fast ship" id=":1473258656_5_0" index="0" length="2.34" shape="663.96,924.62 664.54,925.94 664.44,926.83" speed="2.78" />
    </edge>
    <edge function="internal" id=":1473258656_10">
        <lane allow="pedestrian delivery bicycle" id=":1473258656_10_0" index="0" length="5.55" shape="667.13,928.55 667.21,928.73 666.94,931.09 665.42,933.65" speed="4.17" />
    </edge>
    <edge function="internal" id=":1473258656_11">
        <lane disallow="tram rail_urban rail rail_electric rail_fast ship" id=":1473258656_11_0" index="0" length="2.34" shape="664.44,926.83 663.67,927.28 662.23,927.31" speed="2.78" />
    </edge>
    <edge function="internal" id=":1473258656_6">
        <lane disallow="tram rail_urban rail rail_electric rail_fast ship" id=":1473258656_6_0" index="0" length="5.13" shape="662.93,931.64 663.66,930.41 663.79,929.28 663.31,928.24 662.23,927.31" speed="4.17" />
    </edge>
    <edge function="internal" id=":1473258656_7">
        <lane disallow="tram rail_urban rail rail_electric rail_fast ship" id=":1473258656_7_0" index="0" length="10.22" shape="662.93,931.64 665.02,929.62 667.22,928.63 669.51,928.66 671.90,929.72" speed="4.17" />
    </edge>
    <edge function="internal" id=":1473258656_8">
        <lane allow="pedestrian delivery bicycle" id=":1473258656_8_0" index="0" length="4.67" shape="662.93,931.64 664.31,931.21 665.18,931.40 665.55,932.21 665.42,933.65" speed="3.65" />
    </edge>
    <edge function="internal" id=":1473258657_0">
        <lane allow="pedestrian bicycle" id=":1473258657_0_0" index="0" length="5.01" shape="651.68,931.19 655.85,933.95" speed="2.78" width="2.00" />
    </edge>
    <edge function="internal" id=":1473258657_1">
        <lane allow="pedestrian bicycle" id=":1473258657_1_0" index="0" length="4.12" shape="652.25,934.65 653.06,933.84 653.94,933.45 654.86,933.49 655.85,933.95" speed="2.78" width="2.00" />
    </edge>
    <edge function="internal" id=":1473258660_0">
        <lane allow="pedestrian bicycle" id=":1473258660_0_0" index="0" length="4.58" shape="663.60,935.96 663.09,936.98 663.10,937.95 663.63,938.89 664.69,939.78" speed="4.17" width="2.00" />
    </edge>
    <edge function="internal" id=":1473258660_1">
        <lane allow="pedestrian delivery bicycle" id=":1473258660_1_0" index="0" length="5.39" shape="663.60,935.96 660.37,940.27" speed="5.56" />
    </edge>
    <edge function="internal" id=":1473258660_2">
        <lane allow="pedestrian delivery bicycle" id=":1473258660_2_0" index="0" length="2.34" shape="663.60,935.96 662.24,936.44 661.36,936.28" speed="3.65" />
    </edge>
    <edge function="internal" id=":1473258660_9">
        <lane allow="pedestrian delivery bicycle" id=":1473258660_9_0" index="0" length="2.34" shape="661.36,936.28 660.96,935.48 661.04,934.04" speed="3.65" />
    </edge>
    <edge function="internal" id=":1473258660_3">
        <lane allow="pedestrian delivery bicycle" id=":1473258660_3_0" index="0" length="4.88" shape="656.73,934.53 657.99,935.16 659.13,935.28 660.14,934.91 661.04,934.04" speed="4.17" />
    </edge>
    <edge function="internal" id=":1473258660_4">
        <lane allow="pedestrian bicycle" id=":1473258660_4_0" index="0" length="9.53" shape="656.73,934.53 664.69,939.78" speed="2.78" width="2.00" />
    </edge>
    <edge function="internal" id=":1473258660_5">
        <lane allow="pedestrian delivery bicycle" id=":1473258660_5_0" index="0" length="7.50" shape="656.73,934.53 658.95,936.21 660.30,937.72 660.77,939.08 660.37,940.27" speed="4.17" />
    </edge>
    <edge function="internal" id=":1473258660_6">
        <lane allow="pedestrian delivery bicycle" id=":1473258660_6_0" index="0" length="5.39" shape="657.81,938.35 661.04,934.04" speed="5.56" />
    </edge>
    <edge function="internal" id=":1473258660_7">
        <lane allow="pedestrian bicycle" id=":1473258660_7_0" index="0" length="2.71" shape="657.81,938.35 658.82,937.67 660.31,937.67" speed="4.17" width="2.00" />
    </edge>
    <edge function="internal" id=":1473258660_8">
        <lane allow="pedestrian delivery bicycle" id=":1473258660_8_0" index="0" length="2.34" shape="657.81,938.35 659.17,937.87 660.05,938.03" speed="3.65" />
    </edge>
    <edge function="internal" id=":1473258660_10">
        <lane allow="pedestrian bicycle" id=":1473258660_10_0" index="0" length="4.88" shape="660.31,937.67 662.26,938.38 664.69,939.78" speed="4.17" width="2.00" />
    </edge>
    <edge function="internal" id=":1473258660_11">
        <lane allow="pedestrian delivery bicycle" id=":1473258660_11_0" index="0" length="2.34" shape="660.05,938.03 660.45,938.83 660.37,940.27" speed="3.65" />
    </edge>
    <edge function="internal" id=":1473258664_0">
        <lane allow="pedestrian delivery bicycle" id=":1473258664_0_0" index="0" length="5.07" shape="728.30,969.80 727.04,969.18 725.91,969.13 724.90,969.66 724.02,970.75" speed="4.17" />
    </edge>
    <edge function="internal" id=":1473258664_1">
        <lane disallow="tram rail_urban rail rail_electric rail_fast ship" id=":1473258664_1_0" index="0" length="9.45" shape="728.30,969.80 720.41,964.59" speed="2.78" />
    </edge>
    <edge function="internal" id=":1473258664_2">
        <lane disallow="tram rail_urban rail rail_electric rail_fast ship" id=":1473258664_2_0" index="0" length="2.34" shape="728.30,969.80 727.76,968.46 727.88,967.57" speed="2.78" />
    </edge>
    <edge function="internal" id=":1473258664_9">
        <lane disallow="tram rail_urban rail rail_electric rail_fast ship" id=":1473258664_9_0" index="0" length="2.34" shape="727.88,967.57 728.66,967.14 730.10,967.15" speed="2.78" />
    </edge>
    <edge function="internal" id=":1473258664_3">
        <lane disallow="tram rail_urban rail rail_electric rail_fast ship" id=":1473258664_3_0" index="0" length="9.54" shape="722.13,961.90 730.10,967.15" speed="2.78" />
    </edge>
    <edge function="internal" id=":1473258664_4">
        <lane allow="pedestrian delivery bicycle" id=":1473258664_4_0" index="0" length="5.04" shape="722.13,961.90 724.20,963.69 725.20,965.76" speed="4.17" />
    </edge>
    <edge function="internal" id=":1473258664_5">
        <lane disallow="tram rail_urban rail rail_electric rail_fast ship" id=":1473258664_5_0" index="0" length="2.34" shape="722.13,961.90 722.71,963.22 722.62,964.11" speed="2.78" />
    </edge>
    <edge function="internal" id=":1473258664_10">
        <lane allow="pedestrian delivery bicycle" id=":1473258664_10_0" index="0" length="5.21" shape="725.20,965.76 725.14,968.12 724.02,970.75" speed="4.17" />
    </edge>
    <edge function="internal" id=":1473258664_11">
        <lane disallow="tram rail_urban rail rail_electric rail_fast ship" id=":1473258664_11_0" index="0" length="2.34" shape="722.62,964.11 721.85,964.56 720.41,964.59" speed="2.78" />
    </edge>
    <edge function="internal" id=":1473258664_6">
        <lane disallow="tram rail_urban rail rail_electric rail_fast ship" id=":1473258664_6_0" index="0" length="5.20" shape="721.27,969.11 721.86,967.75 721.91,966.54 721.43,965.49 720.41,964.59" speed="4.17" />
    </edge>
    <edge function="internal" id=":1473258664_7">
        <lane disallow="tram rail_urban rail rail_electric rail_fast ship" id=":1473258664_7_0" index="0" length="10.46" shape="721.27,969.11 723.09,966.86 725.17,965.79 727.50,965.88 730.10,967.15" speed="4.17" />
    </edge>
    <edge function="internal" id=":1473258664_8">
        <lane allow="pedestrian delivery bicycle" id=":1473258664_8_0" index="0" length="4.67" shape="721.27,969.11 722.57,968.49 723.46,968.55 723.95,969.31 724.02,970.75" speed="3.65" />
    </edge>
    <edge function="internal" id=":1473258672_0">
        <lane allow="pedestrian delivery bicycle" id=":1473258672_0_0" index="0" length="10.13" shape="637.63,976.04 635.66,974.08 634.80,971.96 635.03,969.68 636.35,967.24" speed="5.56" />
    </edge>
    <edge function="internal" id=":1473258672_1">
        <lane allow="pedestrian delivery bicycle" id=":1473258672_1_0" index="0" length="4.67" shape="637.63,976.04 637.15,974.68 637.31,973.80 638.11,973.40 639.55,973.48" speed="3.65" />
    </edge>
    <edge function="internal" id=":1473258672_2">
        <lane allow="pedestrian delivery bicycle" id=":1473258672_2_0" index="0" length="4.99" shape="638.92,969.15 638.27,970.35 638.15,971.47 638.58,972.52 639.55,973.48" speed="5.05" />
    </edge>
    <edge function="internal" id=":1473258672_3">
        <lane allow="pedestrian delivery bicycle" id=":1473258672_3_0" index="0" length="4.67" shape="638.92,969.15 637.56,969.63 636.68,969.48 636.28,968.68 636.35,967.24" speed="3.65" />
    </edge>
    <edge function="internal" id=":1473258678_0">
        <lane allow="pedestrian bicycle" id=":1473258678_0_0" index="0" length="4.57" shape="721.67,974.15 721.15,975.16 721.15,976.13 721.67,977.07 722.71,977.98" speed="4.17" width="2.00" />
    </edge>
    <edge function="internal" id=":1473258678_1">
        <lane allow="pedestrian delivery bicycle" id=":1473258678_1_0" index="0" length="5.37" shape="721.67,974.15 718.43,978.43" speed="5.56" />
    </edge>
    <edge function="internal" id=":1473258678_2">
        <lane allow="pedestrian delivery bicycle" id=":1473258678_2_0" index="0" length="2.34" shape="721.67,974.15 720.31,974.62 719.43,974.45" speed="3.65" />
    </edge>
    <edge function="internal" id=":1473258678_9">
        <lane allow="pedestrian delivery bicycle" id=":1473258678_9_0" index="0" length="2.34" shape="719.43,974.45 719.03,973.65 719.12,972.21" speed="3.65" />
    </edge>
    <edge function="internal" id=":1473258678_3">
        <lane allow="pedestrian delivery bicycle" id=":1473258678_3_0" index="0" length="4.88" shape="714.80,972.68 716.06,973.30 717.20,973.43 718.22,973.07 719.12,972.21" speed="4.17" />
    </edge>
    <edge function="internal" id=":1473258678_4">
        <lane allow="pedestrian bicycle" id=":1473258678_4_0" index="0" length="9.53" shape="714.80,972.68 722.71,977.98" speed="2.78" width="2.00" />
    </edge>
    <edge function="internal" id=":1473258678_5">
        <lane allow="pedestrian delivery bicycle" id=":1473258678_5_0" index="0" length="7.52" shape="714.80,972.68 717.02,974.35 718.37,975.87 718.84,977.22 718.43,978.43" speed="4.17" />
    </edge>
    <edge function="internal" id=":1473258678_6">
        <lane allow="pedestrian delivery bicycle" id=":1473258678_6_0" index="0" length="5.38" shape="715.87,976.50 719.12,972.21" speed="5.56" />
    </edge>
    <edge function="internal" id=":1473258678_7">
        <lane allow="pedestrian bicycle" id=":1473258678_7_0" index="0" length="2.72" shape="715.87,976.50 716.90,975.80 718.38,975.82" speed="4.17" width="2.00" />
    </edge>
    <edge function="internal" id=":1473258678_8">
        <lane allow="pedestrian delivery bicycle" id=":1473258678_8_0" index="0" length="2.34" shape="715.87,976.50 717.24,976.02 718.12,976.19" speed="3.65" />
    </edge>
    <edge function="internal" id=":1473258678_10">
        <lane allow="pedestrian bicycle" id=":1473258678_10_0" index="0" length="4.86" shape="718.38,975.82 720.32,976.54 722.71,977.98" speed="4.17" width="2.00" />
    </edge>
    <edge function="internal" id=":1473258678_11">
        <lane allow="pedestrian delivery bicycle" id=":1473258678_11_0" index="0" length="2.34" shape="718.12,976.19 718.51,976.99 718.43,978.43" speed="3.65" />
    </edge>
    <edge function="internal" id=":1473258716_0">
        <lane allow="pedestrian bicycle" id=":1473258716_0_0" index="0" length="4.06" shape="735.66,986.83 736.48,987.59 736.85,988.42 736.76,989.33 736.21,990.30" speed="2.78" width="2.00" />
    </edge>
    <edge function="internal" id=":1473258747_0">
        <lane allow="pedestrian delivery bicycle" id=":1473258747_0_0" index="0" length="9.40" shape="693.97,1010.69 688.29,1018.18" speed="5.56" />
    </edge>
    <edge function="internal" id=":1473258747_1">
        <lane allow="pedestrian delivery bicycle" id=":1473258747_1_0" index="0" length="10.16" shape="693.97,1010.69 692.00,1012.64 689.86,1013.50 687.58,1013.25 685.14,1011.90" speed="5.56" />
    </edge>
    <edge function="internal" id=":1473258747_2">
        <lane allow="pedestrian delivery bicycle" id=":1473258747_2_0" index="0" length="4.67" shape="693.97,1010.69 692.61,1011.16 691.73,1011.00 691.34,1010.19 691.42,1008.75" speed="3.65" />
    </edge>
    <edge function="internal" id=":1473258747_3">
        <lane allow="pedestrian delivery bicycle" id=":1473258747_3_0" index="0" length="5.01" shape="687.07,1009.35 688.27,1010.01 689.40,1010.14 690.45,1009.72 691.42,1008.75" speed="5.05" />
    </edge>
    <edge function="internal" id=":1473258747_4">
        <lane allow="pedestrian delivery bicycle" id=":1473258747_4_0" index="0" length="10.17" shape="687.07,1009.35 689.04,1011.33 689.89,1013.46 689.65,1015.74 688.29,1018.18" speed="5.56" />
    </edge>
    <edge function="internal" id=":1473258747_5">
        <lane allow="pedestrian delivery bicycle" id=":1473258747_5_0" index="0" length="4.67" shape="687.07,1009.35 687.55,1010.71 687.38,1011.59 686.58,1011.99 685.14,1011.90" speed="3.65" />
    </edge>
    <edge function="internal" id=":1473258747_6">
        <lane allow="pedestrian delivery bicycle" id=":1473258747_6_0" index="0" length="5.00" shape="685.74,1016.24 686.41,1015.05 686.53,1013.92 686.11,1012.87 685.14,1011.90" speed="5.04" />
    </edge>
    <edge function="internal" id=":1473258747_7">
        <lane allow="pedestrian delivery bicycle" id=":1473258747_7_0" index="0" length="9.40" shape="685.74,1016.24 691.42,1008.75" speed="5.56" />
    </edge>
    <edge function="internal" id=":1473258747_8">
        <lane allow="pedestrian delivery bicycle" id=":1473258747_8_0" index="0" length="4.67" shape="685.74,1016.24 687.11,1015.77 687.98,1015.94 688.38,1016.74 688.29,1018.18" speed="3.65" />
    </edge>
    <edge function="internal" id=":1473258756_0">
        <lane allow="pedestrian bicycle" id=":1473258756_0_0" index="0" length="4.13" shape="588.51,1021.35 587.53,1020.79 586.62,1020.71 585.78,1021.10 585.00,1021.96" speed="2.78" width="2.00" />
    </edge>
    <edge function="internal" id=":1473258756_1">
        <lane allow="pedestrian bicycle" id=":1473258756_1_0" index="0" length="5.38" shape="588.51,1021.35 587.25,1020.38 586.31,1019.81 585.29,1019.40 583.78,1018.91" speed="2.78" width="2.00" />
    </edge>
    <edge function="internal" id=":1473258756_2">
        <lane allow="pedestrian bicycle" id=":1473258756_2_0" index="0" length="4.09" shape="588.51,1021.35 587.72,1020.53 587.38,1019.66 587.47,1018.75 588.01,1017.79" speed="2.78" width="2.00" />
    </edge>
    <edge function="internal" id=":1473296997_0">
        <lane allow="pedestrian delivery bicycle" id=":1473296997_0_0" index="0" length="5.16" shape="599.80,1087.85 598.70,1086.92 597.60,1086.62 596.51,1086.94 595.42,1087.88" speed="4.92" />
    </edge>
    <edge function="internal" id=":1473296997_1">
        <lane allow="pedestrian delivery bicycle" id=":1473296997_1_0" index="0" length="9.21" shape="599.80,1087.85 597.98,1085.82 596.77,1084.38 595.73,1082.82 594.38,1080.45" speed="5.56" />
    </edge>
    <edge function="internal" id=":1473296997_2">