<?xml version="1.0" encoding="UTF-8"?>

<!-- generated on Mon Nov 11 18:02:28 2019 by Eclipse SUMO polyconvert Version v1_3_1+0817-d484d16121
<configuration xmlns:xsi="http://www.w3.org/2001/XMLSchema-instance" xsi:noNamespaceSchemaLocation="http://sumo.dlr.de/xsd/polyconvertConfiguration.xsd">

    <input>
        <net-file value="osm.net.xml"/>
        <osm-files value="osm_bbox.osm.xml"/>
        <osm.keep-full-type value="true"/>
        <type-file value="/home/charu/Projects/sumo/data/typemap/osmPolyconvert.typ.xml"/>
    </input>

    <output>
        <output-file value="osm.poly.xml"/>
    </output>

    <processing>
        <poi-layer-offset value="5"/>
    </processing>

    <report>
        <verbose value="true"/>
    </report>

</configuration>
-->

<additional xmlns:xsi="http://www.w3.org/2001/XMLSchema-instance" xsi:noNamespaceSchemaLocation="http://sumo.dlr.de/xsd/additional_file.xsd">
    <location netOffset="-390685.42,-5819138.57" convBoundary="-7252.39,-1319.85,2324.08,1789.88" origBoundary="13.282814,52.498035,13.423389,52.527759" projParameter="+proj=utm +zone=33 +ellps=WGS84 +datum=WGS84 +units=m +no_defs"/>

    <poly id="104786904" type="natural.grassland" color="140,196,107" fill="1" layer="-4.00" shape="323.197685,828.708625 328.534925,766.864815 309.138166,765.204473 303.794382,827.048459 323.197685,828.708625"/>
    <poly id="104786906" type="building.yes" color="255,230,230" fill="1" layer="-1.00" shape="337.389372,933.248626 400.713616,944.837064 393.708968,954.929827 390.021052,959.718840 385.547803,965.515684 383.641254,967.995043 369.542716,967.073478 358.163173,966.325143 358.763936,959.156702 380.271131,960.825908 381.601583,953.808156 341.742808,947.083569 340.225980,948.163319 338.376913,957.496047 339.407751,958.674895 339.206135,959.680870 338.359699,960.078044 338.138480,964.778833 334.651341,964.555982 331.347384,964.329057 331.748632,962.228130 335.607303,942.846927 337.216148,932.785119 337.389372,933.248626"/>
    <poly id="104786907" type="building.residential" color="255,230,230" fill="1" layer="-1.00" shape="366.162308,914.893263 364.887129,927.751803 325.197191,920.389311 328.295836,888.205970 341.923896,889.327062 343.119904,875.657959 356.427631,876.719455 355.290341,889.063058 347.472541,888.235502 346.187831,901.884322 354.083314,902.543232 353.622180,907.750101 353.157519,913.713728 366.162308,914.893263"/>
    <poly id="104786910" type="building.yes" color="255,230,230" fill="1" layer="-1.00" shape="443.875663,941.685247 456.547105,925.123849 440.451510,912.540191 441.157433,911.623159 440.376929,911.017362 443.451272,907.020964 444.162447,907.561537 445.105942,906.338779 449.062986,909.377684 449.821706,908.392715 466.603162,921.294989 473.862771,911.975606 483.916549,915.068222 463.746364,941.187928 456.258261,950.913002 443.875663,941.685247"/>
    <poly id="104786915" type="building.yes" color="255,230,230" fill="1" layer="-1.00" shape="441.388238,934.830280 427.860559,932.415878 426.743646,938.661060 440.246149,941.165039 441.388238,934.830280"/>
    <poly id="104786916" type="building.yes" color="255,230,230" fill="1" layer="-1.00" shape="469.681704,867.090628 464.841520,884.178969 502.922191,895.183699 507.723125,881.212009 505.057959,880.102818 502.503661,878.178849 499.801447,876.013359 496.101664,874.470928 481.790964,870.426881 469.681704,867.090628"/>
    <poly id="11548677" type="natural.water" color="181,209,209" fill="0" layer="-4.00" shape="1473.864310,172.984294 1443.984228,155.927116 1311.282724,86.087929 1303.768595,79.065196 1293.364785,71.538686 1290.660386,69.584232 1274.268145,57.727664 1232.457948,29.273168 1180.262114,3.073457 1167.919963,-1.516847 1145.840980,-9.541986 1139.180116,-12.955732 1136.776914,-13.870765 1115.153979,-18.456294 1052.101273,-26.210179 1006.564999,-24.113175 985.776679,-22.262597 981.510288,-21.467218 978.978969,-20.498781 975.923720,-18.661933 972.975527,-16.282199 970.873501,-14.321769 969.280170,-12.383716 968.022689,-10.608876 949.587387,24.873003 941.940947,39.519130 827.992581,235.416464 824.954699,240.480032 822.458813,245.186643 769.204792,351.388657 754.610052,392.784063 716.649676,488.699770 708.607216,505.013115 630.456850,656.390709 625.735184,693.539323 597.718416,799.272631 577.437532,854.392873 578.225941,855.966620 578.301725,858.157079 565.146732,879.257821 563.363972,879.063727 554.282460,895.300301 500.249363,934.668284 417.764645,1033.968642 406.790655,1047.176372 394.516812,1062.059930 382.395478,1076.472768 323.675139,1147.850066 326.338071,1150.083097 316.777460,1161.813000 314.081599,1159.625218 311.809060,1163.648372 306.418603,1166.038398"/>
    <poly id="120456814" type="amenity.university" color="237,199,199" fill="1" layer="-1.00" shape="133.021454,946.780395 133.154643,947.578617 170.233456,950.769236 176.851418,951.367308 204.082372,953.709389 208.520940,899.441076 226.791070,900.825650 235.399951,901.512990 238.326497,901.859534 248.042503,902.577877 247.458819,908.677701 246.111246,921.014895 245.673059,926.332544 245.654590,926.722423 247.811986,926.974824 247.097365,932.376523 247.062602,932.644361 245.879053,944.421520 234.465107,943.351533 233.281208,956.330491 272.035888,959.495677 273.165586,959.626312 278.550293,900.563262 278.921813,895.603187 279.951046,885.732303 282.531967,850.734028 381.643167,859.544979 394.332541,773.279494 401.924408,687.316588 251.000232,674.172636 246.404436,725.684710 236.994535,866.436497 229.858606,865.749728 211.970729,865.380367 178.227289,862.326512 156.389190,860.454124 155.606453,869.496101 148.084532,868.851437 143.218521,925.232480 143.147676,926.012996 141.671952,925.890104 121.751830,924.175424 121.109616,931.600766 129.107606,932.290411 129.225624,930.885694 133.510315,931.257535 133.386008,932.684647 134.202139,932.755475 133.031393,946.312811 133.021454,946.780395"/>
    <poly id="121673258" type="landuse.construction" color="194,194,130" fill="1" layer="-3.00" shape="711.661680,554.596779 711.418636,555.881843 710.922572,557.083496 709.834847,558.543075 708.371751,557.462755 702.741171,565.899930 719.377248,577.738053 696.769807,614.682257 683.244621,610.575673 670.751824,613.534515 665.996516,623.476806 671.957848,657.194774 675.638732,659.104972 675.877658,668.958739 694.700000,670.421854 691.802079,674.124850 705.012771,676.914240 717.599221,680.941542 730.624314,685.771468 754.250893,700.325647 775.049478,711.637705 784.659442,700.820145 898.693076,768.532057 981.943121,632.302067 995.541983,600.465728 922.446327,554.501176 843.211994,504.222569 837.485917,501.923560 830.681308,501.195181 824.329450,504.050998 803.167599,531.838016 743.277710,491.002654 738.333340,488.753198 734.808540,494.194838 746.507461,503.182559 745.466223,504.596589 745.983737,504.974585 741.040954,511.371241 743.103238,512.838883 741.779739,514.381574 739.616740,515.720321 737.130166,516.242799 735.239462,516.084414 733.453503,515.445220 731.888870,514.378271 729.530190,517.301481 707.759712,548.229283 709.231202,549.075737 710.104865,549.902064 710.826170,550.898683 711.538829,552.730065 711.661680,554.596779"/>
    <poly id="121673264" type="landuse.construction" color="194,194,130" fill="1" layer="-3.00" shape="1094.668395,297.651982 1004.518353,406.847554 965.905777,383.565754 912.355004,341.753541 942.892558,299.805630 971.821437,264.291869 1008.201660,221.569788 1036.313462,245.796213 1094.668395,297.651982"/>
    <poly id="121674885" type="building.yes" color="255,230,230" fill="1" layer="-1.00" shape="596.300156,298.628078 586.972845,294.061351 584.127714,299.844095 593.455017,304.410817 594.903493,301.463234 596.300156,298.628078"/>
    <poly id="121717655" type="building.yes" color="255,230,230" fill="1" layer="-1.00" shape="544.539914,882.686506 552.367833,870.216636 518.963148,849.393224 514.670823,861.817989 535.045393,874.518273 534.002702,876.166066 544.539914,882.686506"/>
    <poly id="121717767" type="leisure.park" color="207,245,201" fill="1" layer="-2.00" shape="642.739378,969.471932 667.572811,988.294144 669.242651,986.153980 668.492903,985.402806 668.006762,984.601275 667.752773,983.861359 667.654335,983.095737 667.693066,982.393838 667.854165,981.700351 668.210287,980.924645 668.724426,980.234455 669.357109,979.686293 670.087983,979.280613 670.842911,979.041313 671.635216,978.956971 672.922666,979.162091 673.628871,979.480254 674.228497,979.889802 676.367706,977.182848 678.903256,979.185213 679.758472,978.264905 680.602463,977.756569 681.553155,977.468418 682.420830,977.415789 683.279377,977.563660 684.190349,977.932920 684.977102,978.516360 685.549219,979.215838 685.954191,980.030299 686.154887,980.815909 686.186465,981.627524 686.061506,982.420357 685.772486,983.161191 685.107483,984.088406 688.340100,986.609440 686.372845,989.112278 687.318352,990.426620 687.529904,991.089585 687.620075,991.788625 687.582327,992.535013 687.408150,993.251044 687.110373,993.903051 686.709349,994.490582 686.124650,995.059932 685.435225,995.498073 684.627503,995.805307 683.774880,995.924368 683.061278,995.884558 682.358283,995.710982 681.459650,995.285811 679.624884,997.641054 697.888617,1011.312398 655.773314,1066.816489 667.052176,1075.279181 732.599789,989.199917 661.669657,943.113435 642.739378,969.471932"/>
    <poly id="127177463" type="landuse.grass" color="194,194,130" fill="1" layer="-3.00" shape="397.322598,880.260886 391.092029,932.487937 401.545054,934.302954 426.721561,938.583658 427.820207,932.127456 440.451510,912.540191 441.157433,911.623159 440.376929,911.017362 443.451272,907.020964 444.162447,907.561537 445.105942,906.338779 449.062986,909.377684 449.821706,908.392715 466.603162,921.294989 473.862771,911.975606 483.916549,915.068222 473.541604,907.298010 397.322598,880.260886"/>
    <poly id="127177463#1" type="leisure.garden" color="207,245,201" fill="1" layer="-2.00" shape="397.322598,880.260886 391.092029,932.487937 401.545054,934.302954 426.721561,938.583658 427.820207,932.127456 440.451510,912.540191 441.157433,911.623159 440.376929,911.017362 443.451272,907.020964 444.162447,907.561537 445.105942,906.338779 449.062986,909.377684 449.821706,908.392715 466.603162,921.294989 473.862771,911.975606 483.916549,915.068222 473.541604,907.298010 397.322598,880.260886"/>
    <poly id="127178490" type="building.yes" color="255,230,230" fill="1" layer="-1.00" shape="430.147651,984.909740 406.985525,965.283725 402.267359,961.594122 397.611731,957.969898 393.708968,954.929827 390.021052,959.718840 416.263112,980.177631 412.798201,984.616712 399.646301,974.371304 398.610074,975.696283 385.547803,965.515684 383.641254,967.995043 382.935350,968.912083 419.873473,999.069980 430.147651,984.909740"/>
    <poly id="127178491" type="building.yes" color="255,230,230" fill="1" layer="-1.00" shape="422.493546,945.643564 406.985525,965.283725 430.147651,984.909740 451.057033,957.248963 440.285017,949.020287 437.606826,948.545699 422.493546,945.643564"/>
    <poly id="127182169" type="building.yes" color="255,230,230" fill="1" layer="-1.00" shape="416.283987,964.631854 424.591164,970.990198 435.389558,956.896210 423.945743,953.867984 416.283987,964.631854"/>
    <poly id="130777430" type="building.residential" color="255,230,230" fill="1" layer="-1.00" shape="367.163462,908.939958 366.714442,908.894309 366.162308,914.893263 387.989204,916.889227 391.389225,879.925480 377.336549,878.635651 376.833089,884.077139 372.010666,883.639152 371.376791,890.541262 376.110761,890.970088 374.761028,905.666343 367.523908,905.003882 367.163462,908.939958"/>
    <poly id="131765142" type="building.yes" color="255,230,230" fill="1" layer="-1.00" shape="457.399173,845.575701 476.507894,847.732633 479.372055,845.576990 482.426284,845.865205 483.694348,847.639704 486.422777,847.623587 503.888169,858.919543 505.115535,861.306970 512.940649,866.741454 514.670823,861.817989 518.963148,849.393224 490.995307,831.620600 490.447387,832.623134 489.487779,832.510924 489.468997,831.665641 488.674041,830.715201 487.912155,830.031089 486.572109,829.905079 485.657792,830.303734 484.703150,831.025988 484.165364,832.484530 481.913698,832.267501 473.424398,831.465792 464.308183,830.555626 463.250519,839.470112 459.427142,839.087727 457.399173,845.575701"/>
    <poly id="131765143" type="building.yes" color="255,230,230" fill="1" layer="-1.00" shape="533.982957,797.037940 531.548724,814.885083 535.133164,815.206065 539.392009,815.634476 541.922714,787.458758 538.146799,787.075257 535.344067,786.803676 535.278460,787.517301 528.473083,787.045306 521.506865,787.277934 514.408430,788.281315 506.621813,790.390502 505.609722,788.832863 503.993673,787.589088 501.898150,787.068135 500.002371,787.288295 498.978748,787.655994 497.854476,788.382013 496.940666,789.414930 496.340439,790.507646 495.953504,791.729155 495.875095,793.088468 496.214758,794.627662 496.987902,796.123842 498.034392,797.090950 498.901872,797.639186 499.792290,797.997743 500.549845,798.181209 502.058282,798.247845 502.929808,798.061568 503.784551,797.731005 504.078293,798.425520 503.653459,798.857808 503.405770,799.319544 503.318330,799.966889 503.494260,800.552745 503.692140,800.904433 504.046316,801.263776 504.472406,801.499117 505.004086,801.598582 505.424246,801.566992 505.846784,802.559092 515.499507,798.895090 520.738051,798.200087 533.982957,797.037940"/>
    <poly id="131765147" type="building.yes" color="255,230,230" fill="1" layer="-1.00" shape="499.801447,876.013359 502.503661,878.178849 505.057959,880.102818 507.723125,881.212009 512.940649,866.741454 505.115535,861.306970 499.801447,876.013359"/>
    <poly id="131765148" type="building.yes" color="255,230,230" fill="1" layer="-1.00" shape="428.912687,827.080526 431.244786,827.251232 429.791824,841.282101 427.371320,864.002910 425.185672,864.006993 425.952014,860.006260 426.641672,847.060613 428.912687,827.080526"/>
    <poly id="131783066" type="building.yes" color="255,230,230" fill="1" layer="-1.00" shape="422.493546,945.643564 406.985525,965.283725 402.267359,961.594122 408.819356,952.512925 402.595752,951.026687 397.611731,957.969898 393.708968,954.929827 400.713616,944.837064 402.963579,941.927225 422.493546,945.643564"/>
    <poly id="131835792" type="building.yes" color="255,230,230" fill="1" layer="-1.00" shape="373.894689,1008.616313 353.770932,993.151465 362.236788,982.536516 368.639081,987.479424 382.362785,998.101499 373.894689,1008.616313"/>
    <poly id="131835793" type="building.yes" color="255,230,230" fill="1" layer="-1.00" shape="343.373204,984.970309 330.672992,974.592627 334.651341,964.555982 338.138480,964.778833 351.627991,974.326656 343.373204,984.970309"/>
    <poly id="131835794" type="building.university" color="255,230,230" fill="1" layer="-1.00" shape="353.770932,993.151465 343.373204,984.970309 351.627991,974.326656 358.831659,979.897125 362.236788,982.536516 353.770932,993.151465"/>
    <poly id="131835795" type="building.yes" color="255,230,230" fill="1" layer="-1.00" shape="419.873473,999.069980 408.628898,1012.628676 396.796145,1003.399942 402.400929,995.986691 377.327592,976.191891 382.935350,968.912083 419.873473,999.069980"/>
    <poly id="131835796" type="building.yes" color="255,230,230" fill="1" layer="-1.00" shape="408.628898,1012.628676 397.597709,1026.928207 373.894689,1008.616313 382.362785,998.101499 393.917522,1007.035936 396.796145,1003.399942 408.628898,1012.628676"/>
    <poly id="131835797" type="building.yes" color="255,230,230" fill="1" layer="-1.00" shape="368.639081,987.479424 362.236788,982.536516 358.831659,979.897125 369.542716,967.073478 383.641254,967.995043 382.935350,968.912083 377.327592,976.191891 368.639081,987.479424"/>
    <poly id="131835798" type="building.theatre" color="255,230,230" fill="1" layer="-1.00" shape="410.799617,818.113778 407.908303,844.995677 406.645814,857.820535 406.157659,861.815084 425.185672,864.006993 425.952014,860.006260 426.641672,847.060613 428.912687,827.080526 429.345491,823.343146 430.029975,822.682526 430.994381,819.957070 425.518097,819.422288 419.804592,818.903915 414.656939,818.495370 410.799617,818.113778"/>
    <poly id="131835798#1" type="historic.yes" color="128,255,128" fill="1" layer="-1.00" shape="410.799617,818.113778 407.908303,844.995677 406.645814,857.820535 406.157659,861.815084 425.185672,864.006993 425.952014,860.006260 426.641672,847.060613 428.912687,827.080526 429.345491,823.343146 430.029975,822.682526 430.994381,819.957070 425.518097,819.422288 419.804592,818.903915 414.656939,818.495370 410.799617,818.113778"/>
    <poly id="133885752" type="building.roof" color="255,230,230" fill="1" layer="-1.00" shape="592.893793,1007.277139 591.560690,1006.238482 593.877097,1003.260492 610.198356,982.312088 611.883888,983.632246 624.033986,968.028716 622.148245,966.557210 637.827327,946.635773 642.904458,940.202624 648.803020,932.549472 644.830337,930.022628 642.055933,928.270387 639.356898,926.549858 630.833459,921.141804 625.704164,917.883964 616.023853,911.733803 618.224618,909.047712 620.538254,906.247841 662.937475,934.172085 720.973313,972.410195 742.810575,986.837041 740.363313,990.040410 666.238347,1086.936729 654.767695,1078.088828 649.726521,1074.205866 651.732947,1071.635376 653.930939,1068.826956 664.614626,1077.080296 665.532984,1077.783217 699.431078,1033.422150 733.270466,989.140537 716.594432,978.193504 678.197539,953.184494 658.368781,940.271231 653.775136,937.290797 615.623423,987.277000 590.745314,1019.042227 604.449312,1029.720980 606.272493,1031.127101 604.341195,1033.718197 602.212292,1036.580744 584.513324,1022.674658 550.622128,995.786182 554.573148,990.613111 566.377742,999.809459 573.236710,1005.154208 574.970477,1006.506665 572.812218,1009.269728 584.340417,1018.249701 586.604267,1015.350768 592.893793,1007.277139"/>
    <poly id="133887411" type="building.yes" color="255,230,230" fill="1" layer="-1.00" shape="649.726521,1074.205866 636.904243,1090.402895 634.362858,1093.029774 631.274159,1095.156930 628.358273,1096.812893 624.448669,1098.346252 619.494399,1099.602355 613.869088,1099.983148 608.822648,1099.227207 603.928357,1101.961970 608.286282,1112.369713 618.213143,1107.932002 617.448592,1106.513508 621.983468,1105.934368 626.671168,1104.595163 630.983385,1102.852572 634.830935,1100.664065 638.733744,1097.906826 641.915565,1094.776122 654.767695,1078.088828 649.726521,1074.205866"/>
    <poly id="145095631" type="building.scaffolding" color="255,230,230" fill="1" layer="-1.00" shape="691.159811,515.681912 688.014415,523.841438 679.100018,520.422666 682.245403,512.263134 691.159811,515.681912"/>
    <poly id="145276462" type="building.yes" color="255,230,230" fill="1" layer="-1.00" shape="221.830294,955.428273 233.281208,956.330491 234.465107,943.351533 230.059554,943.037935 230.742813,933.486317 235.135549,933.833584 235.488758,930.186975 247.097365,932.376523 247.811986,926.974824 245.654590,926.722423 245.673059,926.332544 238.125630,924.842611 239.859027,908.190420 247.458819,908.677701 248.042503,902.577877 238.326497,901.859534 237.622864,905.925670 235.130040,905.547212 235.399951,901.512990 226.791070,900.825650 221.830294,955.428273"/>
    <poly id="145662520" type="waterway.canal" color="181,209,209" fill="0" layer="-4.00" shape="580.403038,873.310763 560.123862,899.443594 513.258443,938.184913 459.495369,1003.408007 412.761606,1059.283999 403.005236,1071.385284 348.633327,1136.567613 328.473102,1161.229999 283.723621,1217.074309"/>
    <poly id="146594546" type="building.yes" color="255,230,230" fill="1" layer="-1.00" shape="278.231054,431.261926 285.235712,431.818177 284.614637,439.599094 289.361383,439.971929 289.080239,443.505648 292.949704,443.808992 292.338971,451.445018 295.582704,451.695525 294.319331,467.524892 294.304174,467.758910 293.549284,467.697818 292.141590,485.277439 292.072939,486.158050 287.421231,485.783099 273.262545,484.662803 273.294343,484.261500 272.818142,484.216463 273.449046,476.268409 274.612038,476.364924 275.502577,466.052031 276.358855,454.504733 275.182288,454.408520 275.792746,446.761369 276.554425,446.822307 276.863296,443.009778 276.441621,442.974654 277.088439,434.825950 277.516900,434.860923 277.622648,433.512125 277.782632,431.550098 278.204060,431.574100 278.231054,431.261926"/>
    <poly id="147065883" type="building.yes" color="255,230,230" fill="1" layer="-1.00" shape="593.455017,304.410817 584.127714,299.844095 581.739227,298.673074 578.815890,304.602217 590.531670,310.339953 591.941404,307.482250 593.455017,304.410817"/>
    <poly id="147699484" type="building.yes" color="255,230,230" fill="1" layer="-1.00" shape="337.216148,932.785119 335.607303,942.846927 323.061103,941.835313 322.737228,947.717918 316.572612,947.053922 315.154237,963.231706 303.090279,962.231667 304.507283,944.774229 306.154094,944.960127 307.566717,926.390023 325.052025,927.592129 324.411031,930.510710 337.216148,932.785119"/>
    <poly id="147699490" type="building.yes" color="255,230,230" fill="1" layer="-1.00" shape="330.672992,974.592627 315.154237,963.231706 316.572612,947.053922 322.737228,947.717918 321.864391,954.859037 331.748632,962.228130 331.347384,964.329057 334.651341,964.555982 330.672992,974.592627"/>
    <poly id="150634669" type="building.viaduct" color="255,230,230" fill="1" layer="-1.00" shape="221.625080,967.851308 247.988195,971.158811 267.387051,974.777303 292.298201,981.166348 317.873298,990.856779 342.246721,1002.677204 363.772759,1016.185727 380.125863,1027.839808 377.860654,1030.672105 375.628627,1033.470283 372.848342,1036.948316 370.576357,1039.780768 368.767160,1042.057672 352.996482,1031.258627 332.371905,1018.909623 309.155110,1007.208164 284.960050,997.609461 262.125420,991.496919 245.022258,987.938599 219.960328,985.447832 221.625080,967.851308"/>
    <poly id="157099365" type="building.yes" color="255,230,230" fill="1" layer="-1.00" shape="254.780634,404.621410 219.169262,401.964838 218.090340,415.397680 217.602337,421.528754 236.236332,423.016597 234.837743,442.521119 237.258738,442.712015 253.709630,444.025983 254.246654,444.058537 257.495886,407.966015 254.780634,404.621410"/>
    <poly id="157099366" type="building.yes" color="255,230,230" fill="1" layer="-1.00" shape="233.333904,480.466495 234.014652,480.551484 233.983894,480.084808 235.222514,480.224140 235.346830,481.233987 250.838902,482.480272 254.183804,444.894509 253.182412,444.738763 253.204352,444.504594 253.646383,444.539263 253.709630,444.025983 237.258738,442.712015 236.200782,456.478215 239.358042,456.808504 238.642850,466.761416 234.926981,466.343420 234.754137,467.727097 234.441275,467.700681 233.333904,480.466495"/>
    <poly id="157099367" type="building.yes" color="255,230,230" fill="1" layer="-1.00" shape="199.466562,414.065465 218.090340,415.397680 219.169262,401.964838 186.502073,399.521122 186.416151,400.235206 185.419179,413.076467 199.466562,414.065465"/>
    <poly id="157099368" type="building.yes" color="255,230,230" fill="1" layer="-1.00" shape="179.725675,475.941000 182.081355,447.301584 182.096755,447.078688 175.023754,446.501852 174.526794,452.532984 175.744324,452.639387 174.911835,462.806353 159.589304,461.556527 158.495509,474.922955 178.755451,476.574638 178.775901,476.273736 179.694132,476.353426 179.725675,475.941000"/>
    <poly id="157099369" type="building.yes" color="255,230,230" fill="1" layer="-1.00" shape="212.927800,478.650929 213.703424,470.499344 215.202454,450.936936 196.587921,449.404232 182.984994,448.249557 182.999592,447.381275 182.081355,447.301584 179.725675,475.941000 181.472692,476.046736 181.428723,476.815523 182.319318,476.873574 182.368455,477.250820 186.688451,477.666445 186.701067,476.709186 205.906062,478.239823 205.908747,479.274635 209.928209,479.607954 209.979862,479.183953 211.217244,479.267668 211.248142,478.521427 212.927800,478.650929"/>
    <poly id="157099372" type="building.yes" color="255,230,230" fill="1" layer="-1.00" shape="184.652872,422.863615 185.419179,413.076467 186.416151,400.235206 159.902268,398.222094 159.933159,397.475853 148.278855,396.645060 146.780031,417.119958 147.983504,417.204413 158.276987,417.898615 158.466605,416.659220 169.308951,417.307831 177.254570,417.742813 176.450754,428.587925 184.112517,429.385328 184.442017,425.283012 198.389568,426.363250 198.604146,424.110686 184.652872,422.863615"/>
    <poly id="157099374" type="building.yes" color="255,230,230" fill="1" layer="-1.00" shape="146.578197,435.173507 159.351481,435.957102 167.665116,436.762208 169.308951,417.307831 158.466605,416.659220 158.276987,417.898615 147.983504,417.204413 146.578197,435.173507"/>
    <poly id="157099377" type="building.roof" color="255,230,230" fill="1" layer="-1.00" shape="195.199604,468.752757 208.229788,469.797817 209.116282,459.918976 196.028569,458.730534 195.199604,468.752757"/>
    <poly id="158844339" type="building.yes" color="255,230,230" fill="1" layer="-1.00" shape="212.596101,1046.413400 210.265048,1068.831924 241.607705,1071.739122 268.018653,1133.310047 286.361566,1126.113770 253.533679,1049.485276 212.596101,1046.413400"/>
    <poly id="159534658" type="waterway.river" color="181,209,209" fill="0" layer="-4.00" shape="1362.827078,345.269745 1330.370571,349.890897 1272.119862,374.020236 1220.141526,388.575694 1166.839546,427.107468 1128.873370,465.935386 1092.125222,507.017864 1043.548638,575.880601 1022.579172,609.337459 928.519388,769.118214 910.805782,800.244664 880.519106,849.987823 853.014954,900.904736 821.555695,950.362706 783.836528,999.414371 770.789164,1019.265871 754.524295,1044.619007 731.760072,1068.580692 694.252851,1096.196623 626.819816,1125.055568 587.208752,1140.411891 539.434501,1159.833400 464.813564,1189.232642 375.321692,1204.887372 357.248857,1206.825063 283.723621,1217.074309 196.257805,1229.794045 161.837415,1227.623431 46.944655,1216.965993 25.955747,1214.452142 -31.987631,1204.206205 -56.309972,1194.066780 -128.007925,1128.435099 -196.690792,1068.412106 -233.508722,1035.896976 -260.590019,1011.721447 -299.058135,984.974469 -357.986625,955.147307 -453.638152,911.421802 -548.953915,883.046821 -587.067734,881.887822 -633.486450,880.592846 -660.543385,884.839095 -681.458560,888.112973 -702.299757,894.679087 -722.635529,902.891968 -746.343942,915.375881 -765.099849,926.524545 -783.625265,940.071694 -801.118959,954.819771 -820.945740,977.498820 -829.818646,994.957489 -831.216901,998.883645 -836.776134,1013.675042 -839.553966,1025.978037 -841.087730,1038.364329 -841.726863,1047.369921 -845.266640,1081.322392 -849.066065,1106.445282 -855.184992,1134.969808 -865.965653,1158.424824 -873.747497,1175.480705 -880.225734,1184.406266 -884.397321,1190.564759 -898.223666,1206.554909 -917.094665,1226.698026 -939.105084,1243.963048 -968.525546,1267.337269 -1001.009110,1286.696792 -1034.706382,1303.691420 -1061.905645,1312.349785 -1090.697441,1318.406928 -1122.957528,1323.262766"/>
    <poly id="15968753" type="building.yes" color="255,230,230" fill="1" layer="-1.00" shape="647.326040,836.918094 619.876310,883.150460 694.293973,927.278460 698.577159,920.239834 699.297563,919.055457 722.101726,881.561582 699.406983,867.977273 685.235487,859.489631 670.927507,850.971673 647.326040,836.918094"/>
    <poly id="15968753#1" type="tourism.museum" color="207,245,201" fill="1" layer="-2.00" shape="647.326040,836.918094 619.876310,883.150460 694.293973,927.278460 698.577159,920.239834 699.297563,919.055457 722.101726,881.561582 699.406983,867.977273 685.235487,859.489631 670.927507,850.971673 647.326040,836.918094"/>
    <poly id="15968754" type="building.yes" color="255,230,230" fill="1" layer="-1.00" shape="640.637565,873.220136 639.867320,872.769867 647.500956,859.792598 648.422439,860.328534 648.958792,859.415297 661.145288,866.544793 660.680850,867.334030 661.458125,867.795273 659.260405,871.538399 654.906999,868.986609 651.558126,874.691485 655.643226,877.082310 653.576272,880.599985 652.648009,880.064199 652.092044,881.011254 640.160055,874.031921 640.637565,873.220136"/>
    <poly id="15968754#1" type="tourism.museum" color="207,245,201" fill="1" layer="-2.00" shape="640.637565,873.220136 639.867320,872.769867 647.500956,859.792598 648.422439,860.328534 648.958792,859.415297 661.145288,866.544793 660.680850,867.334030 661.458125,867.795273 659.260405,871.538399 654.906999,868.986609 651.558126,874.691485 655.643226,877.082310 653.576272,880.599985 652.648009,880.064199 652.092044,881.011254 640.160055,874.031921 640.637565,873.220136"/>
    <poly id="15968756" type="building.yes" color="255,230,230" fill="1" layer="-1.00" shape="680.304106,898.512289 680.945807,897.452059 680.099706,896.947828 682.417826,893.124148 686.029577,895.291817 689.592129,889.426440 686.028114,887.268837 688.104093,883.851125 689.005212,884.387519 689.634088,883.360958 701.453848,890.487557 701.034925,891.186759 701.908657,891.712636 693.513700,905.563529 692.674386,905.059146 692.268295,905.724682 680.304106,898.512289"/>
    <poly id="15968756#1" type="tourism.museum" color="207,245,201" fill="1" layer="-2.00" shape="680.304106,898.512289 680.945807,897.452059 680.099706,896.947828 682.417826,893.124148 686.029577,895.291817 689.592129,889.426440 686.028114,887.268837 688.104093,883.851125 689.005212,884.387519 689.634088,883.360958 701.453848,890.487557 701.034925,891.186759 701.908657,891.712636 693.513700,905.563529 692.674386,905.059146 692.268295,905.724682 680.304106,898.512289"/>