<routes><vType accel="3.5" decel="2.2" id="veh_passenger" length="5" maxSpeed="10" sigma="1.0" vClass="passenger" /></routes>