<?xml version="1.0" encoding="UTF-8"?>

<!-- generated on Mon Dec 23 15:42:45 2019 by Eclipse SUMO netconvert Version 1.4.0
<configuration xmlns:xsi="http://www.w3.org/2001/XMLSchema-instance" xsi:noNamespaceSchemaLocation="http://sumo.dlr.de/xsd/netconvertConfiguration.xsd">

    <input>
        <type-files value="/Users/charu/Projects/sumo/data/typemap/osmNetconvert.typ.xml"/>
        <osm-files value="osm_bbox.osm.xml"/>
    </input>

    <output>
        <output-file value="osm.net.xml"/>
        <output.street-names value="true"/>
        <output.original-names value="true"/>
    </output>

    <projection>
        <proj.utm value="true"/>
    </projection>

    <processing>
        <geometry.remove value="true"/>
        <roundabouts.guess value="true"/>
    </processing>

    <tls_building>
        <tls.discard-simple value="true"/>
        <tls.join value="true"/>
        <tls.guess-signals value="true"/>
        <tls.default-type value="actuated"/>
    </tls_building>

    <ramp_guessing>
        <ramps.guess value="true"/>
    </ramp_guessing>

    <edge_removal>
        <keep-edges.by-type value="highway.primary,highway.primary_link,highway.secondary,highway.secondary_link,highway.tertiary,highway.tertiary_link"/>
    </edge_removal>

    <junctions>
        <junctions.join value="true"/>
        <junctions.corner-detail value="5"/>
    </junctions>

    <report>
        <verbose value="true"/>
        <aggregate-warnings value="5"/>
    </report>

</configuration>
-->

<net version="1.3" junctionCornerDetail="5" limitTurnSpeed="5.50" xmlns:xsi="http://www.w3.org/2001/XMLSchema-instance" xsi:noNamespaceSchemaLocation="http://sumo.dlr.de/xsd/net_file.xsd">

    <location netOffset="-577890.25,-4135232.72" convBoundary="0.00,0.00,7416.88,3844.48" origBoundary="-122.141374,37.332116,-122.036466,37.426880" projParameter="+proj=utm +zone=10 +ellps=WGS84 +datum=WGS84 +units=m +no_defs"/>

    <type id="highway.bridleway" priority="1" numLanes="1" speed="2.78" allow="pedestrian" oneway="1" width="2.00"/>
    <type id="highway.bus_guideway" priority="1" numLanes="1" speed="27.78" allow="bus" oneway="1"/>
    <type id="highway.cycleway" priority="1" numLanes="1" speed="8.33" allow="bicycle" oneway="0" width="1.00"/>
    <type id="highway.footway" priority="1" numLanes="1" speed="2.78" allow="pedestrian" oneway="1" width="2.00"/>
    <type id="highway.ford" priority="1" numLanes="1" speed="2.78" allow="army" oneway="0"/>
    <type id="highway.living_street" priority="2" numLanes="1" speed="2.78" disallow="tram rail_urban rail rail_electric rail_fast ship" oneway="0"/>
    <type id="highway.motorway" priority="14" numLanes="2" speed="39.44" allow="private emergency authority army vip passenger hov taxi bus coach delivery truck trailer motorcycle evehicle custom1 custom2" oneway="1"/>
    <type id="highway.motorway_link" priority="9" numLanes="1" speed="22.22" allow="private emergency authority army vip passenger hov taxi bus coach delivery truck trailer motorcycle evehicle custom1 custom2" oneway="1"/>
    <type id="highway.path" priority="1" numLanes="1" speed="2.78" allow="pedestrian bicycle" oneway="1" width="2.00"/>
    <type id="highway.pedestrian" priority="1" numLanes="1" speed="2.78" allow="pedestrian" oneway="1" width="2.00"/>
    <type id="highway.primary" priority="12" numLanes="2" speed="27.78" disallow="tram rail_urban rail rail_electric rail_fast ship" oneway="0"/>
    <type id="highway.primary_link" priority="7" numLanes="1" speed="22.22" disallow="tram rail_urban rail rail_electric rail_fast ship" oneway="0"/>
    <type id="highway.raceway" priority="15" numLanes="2" speed="83.33" allow="vip" oneway="0"/>
    <type id="highway.residential" priority="3" numLanes="1" speed="13.89" disallow="tram rail_urban rail rail_electric rail_fast ship" oneway="0"/>
    <type id="highway.secondary" priority="11" numLanes="1" speed="27.78" disallow="tram rail_urban rail rail_electric rail_fast ship" oneway="0"/>
    <type id="highway.secondary_link" priority="6" numLanes="1" speed="22.22" disallow="tram rail_urban rail rail_electric rail_fast ship" oneway="0"/>
    <type id="highway.service" priority="1" numLanes="1" speed="5.56" allow="pedestrian delivery bicycle" oneway="0"/>
    <type id="highway.stairs" priority="1" numLanes="1" speed="1.39" allow="pedestrian" oneway="1" width="2.00"/>
    <type id="highway.step" priority="1" numLanes="1" speed="1.39" allow="pedestrian" oneway="1" width="2.00"/>
    <type id="highway.steps" priority="1" numLanes="1" speed="1.39" allow="pedestrian" oneway="1" width="2.00"/>
    <type id="highway.tertiary" priority="10" numLanes="1" speed="22.22" disallow="tram rail_urban rail rail_electric rail_fast ship" oneway="0"/>
    <type id="highway.tertiary_link" priority="5" numLanes="1" speed="22.22" disallow="tram rail_urban rail rail_electric rail_fast ship" oneway="0"/>
    <type id="highway.track" priority="1" numLanes="1" speed="5.56" disallow="tram rail_urban rail rail_electric rail_fast ship" oneway="0"/>
    <type id="highway.trunk" priority="13" numLanes="2" speed="27.78" disallow="pedestrian bicycle tram rail_urban rail rail_electric rail_fast ship" oneway="0"/>
    <type id="highway.trunk_link" priority="8" numLanes="1" speed="22.22" disallow="pedestrian bicycle tram rail_urban rail rail_electric rail_fast ship" oneway="0"/>
    <type id="highway.unclassified" priority="4" numLanes="1" speed="13.89" disallow="tram rail_urban rail rail_electric rail_fast ship" oneway="0"/>
    <type id="highway.unsurfaced" priority="1" numLanes="1" speed="8.33" disallow="tram rail_urban rail rail_electric rail_fast ship" oneway="0"/>
    <type id="railway.highspeed" priority="21" numLanes="1" speed="69.44" allow="rail_fast" oneway="1"/>
    <type id="railway.light_rail" priority="19" numLanes="1" speed="27.78" allow="rail_urban" oneway="1"/>
    <type id="railway.preserved" priority="16" numLanes="1" speed="27.78" allow="rail" oneway="1"/>
    <type id="railway.rail" priority="20" numLanes="1" speed="44.44" allow="rail" oneway="1"/>
    <type id="railway.subway" priority="18" numLanes="1" speed="27.78" allow="rail_urban" oneway="1"/>
    <type id="railway.tram" priority="17" numLanes="1" speed="13.89" allow="tram" oneway="1"/>

    <edge id=":1027195868_0" function="internal">
        <lane id=":1027195868_0_0" index="0" disallow="tram rail_urban rail rail_electric rail_fast ship" speed="20.60" length="0.35" shape="3989.47,3672.32 3989.57,3672.34 3989.65,3672.35 3989.72,3672.35 3989.82,3672.35"/>
    </edge>
    <edge id=":1068240676_0" function="internal">
        <lane id=":1068240676_0_0" index="0" disallow="tram rail_urban rail rail_electric rail_fast ship" speed="15.65" length="8.15" shape="5117.21,3466.04 5115.00,3458.19"/>
        <lane id=":1068240676_0_1" index="1" disallow="tram rail_urban rail rail_electric rail_fast ship" speed="15.65" length="8.15" shape="5120.29,3465.17 5118.08,3457.33"/>
    </edge>
    <edge id=":1068240676_2" function="internal">
        <lane id=":1068240676_2_0" index="0" disallow="tram rail_urban rail rail_electric rail_fast ship" speed="18.93" length="8.15" shape="5114.28,3466.86 5111.92,3459.06"/>
    </edge>
    <edge id=":1124888470_0" function="internal">
        <lane id=":1124888470_0_0" index="0" disallow="tram rail_urban rail rail_electric rail_fast ship" speed="3.65" length="4.67" shape="5945.31,2635.42 5944.80,2636.76 5944.10,2637.33 5943.24,2637.11 5942.19,2636.12"/>
    </edge>
    <edge id=":1305526388_0" function="internal">
        <lane id=":1305526388_0_0" index="0" disallow="tram rail_urban rail rail_electric rail_fast ship" speed="15.65" length="8.21" shape="527.01,2233.22 526.77,2230.82 526.23,2229.22 525.68,2227.61 525.44,2225.21"/>
        <lane id=":1305526388_0_1" index="1" disallow="tram rail_urban rail rail_electric rail_fast ship" speed="15.65" length="8.21" shape="530.21,2233.23 529.97,2230.84 529.43,2229.23 528.88,2227.63 528.64,2225.23"/>
    </edge>
    <edge id=":1305526430_0" function="internal">
        <lane id=":1305526430_0_0" index="0" disallow="tram rail_urban rail rail_electric rail_fast ship" speed="15.65" length="8.19" shape="528.59,2020.98 528.33,2018.58 527.77,2016.98 527.23,2015.37 526.99,2012.98"/>
        <lane id=":1305526430_0_1" index="1" disallow="tram rail_urban rail rail_electric rail_fast ship" speed="15.65" length="8.19" shape="531.79,2020.96 531.53,2018.57 530.97,2016.98 530.43,2015.38 530.19,2012.99"/>
    </edge>
    <edge id=":1358972501_0" function="internal">
        <lane id=":1358972501_0_0" index="0" disallow="tram rail_urban rail rail_electric rail_fast ship" speed="27.78" length="8.60" shape="854.04,1117.96 855.93,1119.53 857.73,1120.04 859.49,1120.57 861.28,1122.21"/>
    </edge>
    <edge id=":1374687594_0" function="internal">
        <lane id=":1374687594_0_0" index="0" disallow="tram rail_urban rail rail_electric rail_fast ship" speed="22.22" length="7.90" shape="476.27,2173.26 475.97,2165.37"/>
    </edge>
    <edge id=":1374687594_1" function="internal">
        <lane id=":1374687594_1_0" index="0" disallow="tram rail_urban rail rail_electric rail_fast ship" speed="22.22" length="8.41" shape="479.16,2165.20 479.79,2167.65 480.96,2169.15 482.10,2170.65 482.67,2173.10"/>
        <lane id=":1374687594_1_1" index="1" disallow="tram rail_urban rail rail_electric rail_fast ship" speed="22.22" length="8.41" shape="479.16,2165.20 479.47,2173.18"/>
    </edge>
    <edge id=":152311603_0" function="internal">
        <lane id=":152311603_0_0" index="0" disallow="tram rail_urban rail rail_electric rail_fast ship" speed="12.77" length="18.76" shape="5154.77,1772.22 5150.70,1770.71 5147.13,1768.16 5144.03,1764.58 5141.43,1759.96"/>
    </edge>
    <edge id=":152311603_1" function="internal">
        <lane id=":152311603_1_0" index="0" disallow="tram rail_urban rail rail_electric rail_fast ship" speed="5.38" length="9.94" shape="5154.77,1772.22 5151.90,1771.21 5151.01,1769.96 5152.10,1768.47 5155.16,1766.74"/>
    </edge>
    <edge id=":152311603_2" function="internal">
        <lane id=":152311603_2_0" index="0" disallow="tram rail_urban rail rail_electric rail_fast ship" speed="6.64" length="9.42" shape="5144.29,1758.54 5145.66,1760.60 5147.43,1761.70 5149.60,1761.86 5152.17,1761.07"/>
    </edge>
    <edge id=":152311603_3" function="internal">
        <lane id=":152311603_3_0" index="0" disallow="tram rail_urban rail rail_electric rail_fast ship" speed="3.65" length="4.67" shape="5144.29,1758.54 5144.11,1759.97 5143.57,1760.68 5142.68,1760.68 5141.43,1759.96"/>
    </edge>
    <edge id=":152311603_4" function="internal">
        <lane id=":152311603_4_0" index="0" disallow="tram rail_urban rail rail_electric rail_fast ship" speed="6.50" length="9.02" shape="5138.75,1767.40 5140.81,1766.07 5141.94,1764.39 5142.15,1762.35 5141.43,1759.96"/>
    </edge>
    <edge id=":152311603_5" function="internal">
        <lane id=":152311603_5_0" index="0" disallow="tram rail_urban rail rail_electric rail_fast ship" speed="17.88" length="15.02" shape="5138.75,1767.40 5152.17,1761.07"/>
        <lane id=":152311603_5_1" index="1" disallow="tram rail_urban rail rail_electric rail_fast ship" speed="17.88" length="15.02" shape="5140.08,1770.31 5153.67,1763.90"/>
        <lane id=":152311603_5_2" index="2" disallow="tram rail_urban rail rail_electric rail_fast ship" speed="17.88" length="15.02" shape="5141.41,1773.22 5155.16,1766.74"/>
    </edge>
    <edge id=":152311607_0" function="internal">
        <lane id=":152311607_0_0" index="0" disallow="tram rail_urban rail rail_electric rail_fast ship" speed="4.48" length="7.46" shape="5425.87,1644.39 5424.19,1643.91 5423.58,1642.33 5424.03,1640.43 5425.55,1639.02"/>
    </edge>
    <edge id=":152311607_1" function="internal">
        <lane id=":152311607_1_0" index="0" disallow="tram rail_urban rail rail_electric rail_fast ship" speed="17.88" length="13.81" shape="5410.63,1638.70 5414.06,1636.39 5416.09,1634.28 5418.15,1632.26 5421.71,1630.22"/>
        <lane id=":152311607_1_1" index="1" disallow="tram rail_urban rail rail_electric rail_fast ship" speed="17.88" length="13.81" shape="5412.14,1641.53 5415.50,1639.25 5417.48,1637.16 5419.50,1635.17 5422.99,1633.16"/>
        <lane id=":152311607_1_2" index="2" disallow="tram rail_urban rail rail_electric rail_fast ship" speed="17.88" length="13.81" shape="5413.64,1644.35 5416.94,1642.11 5418.87,1640.04 5420.84,1638.07 5424.27,1636.09"/>
    </edge>
    <edge id=":152311625_0" function="internal">
        <lane id=":152311625_0_0" index="0" disallow="tram rail_urban rail rail_electric rail_fast ship" speed="7.32" length="4.09" shape="5513.27,1555.08 5513.71,1556.19 5514.16,1556.91 5514.80,1557.46 5515.84,1558.07"/>
    </edge>
    <edge id=":152311625_1" function="internal">
        <lane id=":152311625_1_0" index="0" disallow="tram rail_urban rail rail_electric rail_fast ship" speed="3.65" length="2.34" shape="5513.27,1555.08 5512.93,1556.48 5512.32,1557.13"/>
    </edge>
    <edge id=":152311625_4" function="internal">
        <lane id=":152311625_4_0" index="0" disallow="tram rail_urban rail rail_electric rail_fast ship" speed="3.65" length="2.34" shape="5512.32,1557.13 5511.43,1557.03 5510.27,1556.17"/>
    </edge>
    <edge id=":152311625_2" function="internal">
        <lane id=":152311625_2_0" index="0" disallow="tram rail_urban rail rail_electric rail_fast ship" speed="8.60" length="4.47" shape="5510.61,1560.50 5510.90,1559.23 5510.93,1558.32 5510.71,1557.42 5510.27,1556.17"/>
    </edge>
    <edge id=":152311625_3" function="internal">
        <lane id=":152311625_3_0" index="0" disallow="tram rail_urban rail rail_electric rail_fast ship" speed="5.42" length="3.73" shape="5510.61,1560.50 5511.41,1558.62 5512.54,1557.59 5512.69,1557.57"/>
    </edge>
    <edge id=":152311625_5" function="internal">
        <lane id=":152311625_5_0" index="0" disallow="tram rail_urban rail rail_electric rail_fast ship" speed="5.42" length="3.28" shape="5512.69,1557.57 5514.02,1557.40 5515.84,1558.07"/>
    </edge>
    <edge id=":157232237_0" function="internal">
        <lane id=":157232237_0_0" index="0" disallow="tram rail_urban rail rail_electric rail_fast ship" speed="15.65" length="6.43" shape="5198.80,3613.92 5198.24,3612.29 5197.67,3611.25 5196.93,3610.29 5195.86,3608.92"/>
        <lane id=":157232237_0_1" index="1" disallow="tram rail_urban rail rail_electric rail_fast ship" speed="15.65" length="6.43" shape="5201.87,3613.02 5201.21,3611.07 5200.56,3609.81 5199.70,3608.66 5198.42,3607.01"/>
    </edge>
    <edge id=":157232237_2" function="internal">
        <lane id=":157232237_2_0" index="0" disallow="tram rail_urban rail rail_electric rail_fast ship" speed="3.65" length="2.34" shape="5201.87,3613.02 5202.30,3611.65 5202.96,3611.04"/>
    </edge>
    <edge id=":157232237_5" function="internal">
        <lane id=":157232237_5_0" index="0" disallow="tram rail_urban rail rail_electric rail_fast ship" speed="3.65" length="2.34" shape="5202.96,3611.04 5203.84,3611.20 5204.94,3612.13"/>
    </edge>
    <edge id=":157232237_3" function="internal">
        <lane id=":157232237_3_0" index="0" disallow="tram rail_urban rail rail_electric rail_fast ship" speed="15.65" length="14.73" shape="5204.22,3597.30 5204.90,3601.53 5205.69,3604.35 5206.69,3607.14 5208.02,3611.23"/>
        <lane id=":157232237_3_1" index="1" disallow="tram rail_urban rail rail_electric rail_fast ship" speed="15.65" length="14.73" shape="5201.04,3597.69 5201.74,3602.07 5202.55,3605.00 5203.58,3607.89 5204.94,3612.13"/>
    </edge>
    <edge id=":157308015_0" function="internal">
        <lane id=":157308015_0_0" index="0" disallow="tram rail_urban rail rail_electric rail_fast ship" speed="18.93" length="17.87" shape="5025.06,3031.17 5026.13,3025.39 5027.42,3020.92 5028.26,3017.20 5027.96,3013.69"/>
    </edge>
    <edge id=":157308015_1" function="internal">
        <lane id=":157308015_1_0" index="0" disallow="tram rail_urban rail rail_electric rail_fast ship" speed="15.65" length="16.57" shape="5028.24,3031.52 5028.92,3026.66 5029.66,3023.38 5030.58,3020.13 5031.81,3015.37"/>
    </edge>
    <edge id=":157308015_2" function="internal">
        <lane id=":157308015_2_0" index="0" disallow="tram rail_urban rail rail_electric rail_fast ship" speed="15.65" length="15.01" shape="5031.42,3031.88 5032.03,3027.48 5032.70,3024.50 5033.54,3021.56 5034.66,3017.25"/>
    </edge>
    <edge id=":1578531205_0" function="internal">
        <lane id=":1578531205_0_0" index="0" disallow="tram rail_urban rail rail_electric rail_fast ship" speed="11.18" length="8.41" shape="3536.18,3521.64 3534.63,3519.66 3532.96,3518.77 3531.29,3517.88 3529.75,3515.89"/>
        <lane id=":1578531205_0_1" index="1" disallow="tram rail_urban rail rail_electric rail_fast ship" speed="11.18" length="8.41" shape="3536.18,3521.64 3532.62,3514.48"/>
    </edge>
    <edge id=":1578531205_2" function="internal">
        <lane id=":1578531205_2_0" index="0" disallow="tram rail_urban rail rail_electric rail_fast ship" speed="11.18" length="7.99" shape="3535.49,3513.06 3539.04,3520.22"/>
    </edge>
    <edge id=":1578531249_0" function="internal">
        <lane id=":1578531249_0_0" index="0" disallow="tram rail_urban rail rail_electric rail_fast ship" speed="11.18" length="7.97" shape="3548.01,3545.49 3544.49,3538.33"/>
    </edge>
    <edge id=":1578531249_1" function="internal">
        <lane id=":1578531249_1_0" index="0" disallow="tram rail_urban rail rail_electric rail_fast ship" speed="11.18" length="8.41" shape="3547.36,3536.91 3548.91,3538.89 3550.58,3539.79 3552.24,3540.69 3553.77,3542.69"/>
        <lane id=":1578531249_1_1" index="1" disallow="tram rail_urban rail rail_electric rail_fast ship" speed="11.18" length="8.41" shape="3547.36,3536.91 3550.89,3544.09"/>
    </edge>
    <edge id=":1624206610_0" function="internal">
        <lane id=":1624206610_0_0" index="0" disallow="tram rail_urban rail rail_electric rail_fast ship" speed="15.65" length="8.21" shape="4884.69,3301.62 4882.63,3302.88 4881.42,3304.07 4880.20,3305.25 4878.13,3306.49"/>
        <lane id=":1624206610_0_1" index="1" disallow="tram rail_urban rail rail_electric rail_fast ship" speed="15.65" length="8.21" shape="4884.69,3301.62 4882.42,3302.43 4880.74,3302.62 4879.05,3302.80 4876.77,3303.59"/>
        <lane id=":1624206610_0_2" index="2" disallow="tram rail_urban rail rail_electric rail_fast ship" speed="15.65" length="8.21" shape="4883.31,3298.73 4881.05,3299.54 4879.37,3299.73 4877.69,3299.91 4875.42,3300.69"/>
    </edge>
    <edge id=":1652849324_0" function="internal">
        <lane id=":1652849324_0_0" index="0" disallow="tram rail_urban rail rail_electric rail_fast ship" speed="15.65" length="8.66" shape="4028.69,2005.82 4027.10,2004.00 4025.42,2003.30 4023.68,2002.62 4021.94,2000.90"/>
        <lane id=":1652849324_0_1" index="1" disallow="tram rail_urban rail rail_electric rail_fast ship" speed="15.65" length="8.66" shape="4031.48,2004.26 4029.86,2002.38 4028.15,2001.63 4026.39,2000.91 4024.61,1999.13"/>
    </edge>
    <edge id=":1706628572_0" function="internal">
        <lane id=":1706628572_0_0" index="0" disallow="tram rail_urban rail rail_electric rail_fast ship" speed="13.41" length="6.80" shape="3008.56,2425.78 3007.57,2423.92 3006.60,2422.77 3005.73,2421.59 3005.07,2419.62"/>
        <lane id=":1706628572_0_1" index="1" disallow="tram rail_urban rail rail_electric rail_fast ship" speed="13.41" length="6.80" shape="3008.56,2425.78 3008.08,2423.85 3008.17,2422.44 3008.38,2421.01 3008.21,2418.98"/>
        <lane id=":1706628572_0_2" index="2" disallow="tram rail_urban rail rail_electric rail_fast ship" speed="13.41" length="6.80" shape="3011.54,2424.61 3011.11,2422.83 3011.25,2421.53 3011.48,2420.20 3011.34,2418.34"/>
    </edge>
    <edge id=":1722505394_0" function="internal">
        <lane id=":1722505394_0_0" index="0" disallow="tram rail_urban rail rail_electric rail_fast ship" speed="15.65" length="11.25" shape="3537.10,2640.40 3527.50,2646.26"/>
        <lane id=":1722505394_0_1" index="1" disallow="tram rail_urban rail rail_electric rail_fast ship" speed="15.65" length="11.25" shape="3535.43,2637.67 3525.83,2643.53"/>
        <lane id=":1722505394_0_2" index="2" disallow="tram rail_urban rail rail_electric rail_fast ship" speed="15.65" length="11.25" shape="3533.76,2634.94 3524.17,2640.80"/>
    </edge>
    <edge id=":1722505394_3" function="internal">
        <lane id=":1722505394_3_0" index="0" disallow="tram rail_urban rail rail_electric rail_fast ship" speed="6.66" length="15.44" shape="3525.23,2634.22 3529.70,2635.73 3531.29,2637.79 3530.00,2640.39 3525.83,2643.53"/>
    </edge>
    <edge id=":1722505394_4" function="internal">
        <lane id=":1722505394_4_0" index="0" disallow="tram rail_urban rail rail_electric rail_fast ship" speed="5.64" length="10.58" shape="3525.23,2634.22 3527.88,2635.20 3528.58,2636.62 3527.35,2638.49 3524.17,2640.80"/>
    </edge>
    <edge id=":1782988396_0" function="internal">
        <lane id=":1782988396_0_0" index="0" disallow="tram rail_urban rail rail_electric rail_fast ship" speed="19.48" length="0.30" shape="3370.43,3174.75 3370.30,3174.48"/>
    </edge>
    <edge id=":1782988396_1" function="internal">
        <lane id=":1782988396_1_0" index="0" disallow="tram rail_urban rail rail_electric rail_fast ship" speed="19.48" length="0.30" shape="3373.18,3173.10 3373.31,3173.37"/>
    </edge>
    <edge id=":187643171_0" function="internal">
        <lane id=":187643171_0_0" index="0" disallow="tram rail_urban rail rail_electric rail_fast ship" speed="6.84" length="15.74" shape="3533.79,2626.52 3529.41,2624.53 3527.85,2622.17 3529.11,2619.45 3533.19,2616.38"/>
    </edge>
    <edge id=":187643171_1" function="internal">
        <lane id=":187643171_1_0" index="0" disallow="tram rail_urban rail rail_electric rail_fast ship" speed="5.90" length="11.28" shape="3533.79,2626.52 3531.05,2625.18 3530.31,2623.50 3531.57,2621.48 3534.82,2619.13"/>
    </edge>
    <edge id=":187643171_2" function="internal">
        <lane id=":187643171_2_0" index="0" disallow="tram rail_urban rail rail_electric rail_fast ship" speed="15.65" length="11.34" shape="3521.80,2619.48 3531.56,2613.62"/>
        <lane id=":187643171_2_1" index="1" disallow="tram rail_urban rail rail_electric rail_fast ship" speed="15.65" length="11.34" shape="3523.47,2622.21 3533.19,2616.38"/>
        <lane id=":187643171_2_2" index="2" disallow="tram rail_urban rail rail_electric rail_fast ship" speed="15.65" length="11.34" shape="3525.13,2624.94 3534.82,2619.13"/>
    </edge>
    <edge id=":189968414_0" function="internal">
        <lane id=":189968414_0_0" index="0" disallow="tram rail_urban rail rail_electric rail_fast ship" speed="15.65" length="7.78" shape="2971.53,3331.83 2973.21,3333.51 2974.60,3334.43 2975.95,3335.39 2977.47,3337.19"/>
        <lane id=":189968414_0_1" index="1" disallow="tram rail_urban rail rail_electric rail_fast ship" speed="15.65" length="7.78" shape="2969.04,3333.84 2970.66,3335.46 2972.03,3336.33 2973.34,3337.24 2974.81,3338.97"/>
        <lane id=":189968414_0_2" index="2" disallow="tram rail_urban rail rail_electric rail_fast ship" speed="15.65" length="7.78" shape="2966.55,3335.84 2968.12,3337.40 2969.45,3338.23 2970.73,3339.09 2972.16,3340.76"/>
    </edge>
    <edge id=":195418604_0" function="internal">
        <lane id=":195418604_0_0" index="0" disallow="tram rail_urban rail rail_electric rail_fast ship" speed="15.65" length="13.96" shape="2440.64,3280.55 2452.33,3273.20"/>
        <lane id=":195418604_0_1" index="1" disallow="tram rail_urban rail rail_electric rail_fast ship" speed="15.65" length="13.96" shape="2442.25,3283.32 2454.06,3275.89"/>
        <lane id=":195418604_0_2" index="2" disallow="tram rail_urban rail rail_electric rail_fast ship" speed="15.65" length="13.96" shape="2443.85,3286.09 2455.79,3278.58"/>
    </edge>
    <edge id=":195418604_3" function="internal">
        <lane id=":195418604_3_0" index="0" disallow="tram rail_urban rail rail_electric rail_fast ship" speed="18.93" length="12.66" shape="2443.85,3286.09 2447.42,3284.55 2450.29,3284.03 2452.95,3283.62 2455.86,3282.39"/>
    </edge>
    <edge id=":1954370145_0" function="internal">
        <lane id=":1954370145_0_0" index="0" disallow="tram rail_urban rail rail_electric rail_fast ship" speed="17.88" length="8.21" shape="4548.08,2040.22 4550.15,2038.98 4551.37,2037.81 4552.59,2036.63 4554.66,2035.39"/>
        <lane id=":1954370145_0_1" index="1" disallow="tram rail_urban rail rail_electric rail_fast ship" speed="17.88" length="8.21" shape="4549.43,2043.12 4551.50,2041.88 4552.72,2040.71 4553.94,2039.53 4556.01,2038.30"/>
        <lane id=":1954370145_0_2" index="2" disallow="tram rail_urban rail rail_electric rail_fast ship" speed="17.88" length="8.21" shape="4550.79,2046.02 4552.85,2044.78 4554.07,2043.61 4555.29,2042.43 4557.36,2041.20"/>
    </edge>
    <edge id=":200016279_0" function="internal">
        <lane id=":200016279_0_0" index="0" disallow="tram rail_urban rail rail_electric rail_fast ship" speed="11.18" length="8.20" shape="2867.00,2912.34 2865.36,2914.09 2864.52,2915.56 2863.69,2917.02 2862.06,2918.80"/>
        <lane id=":200016279_0_1" index="1" disallow="tram rail_urban rail rail_electric rail_fast ship" speed="11.18" length="8.20" shape="2867.00,2912.34 2865.03,2913.72 2863.46,2914.36 2861.90,2915.00 2859.94,2916.40"/>
        <lane id=":200016279_0_2" index="2" disallow="tram rail_urban rail rail_electric rail_fast ship" speed="11.18" length="8.20" shape="2864.90,2909.92 2862.92,2911.31 2861.35,2911.95 2859.78,2912.60 2857.82,2914.01"/>
    </edge>
    <edge id=":2161668121_0" function="internal">
        <lane id=":2161668121_0_0" index="0" disallow="tram rail_urban rail rail_electric rail_fast ship" speed="22.22" length="7.99" shape="5909.55,3417.23 5903.42,3412.11"/>
    </edge>
    <edge id=":2161668121_1" function="internal">
        <lane id=":2161668121_1_0" index="0" disallow="tram rail_urban rail rail_electric rail_fast ship" speed="22.22" length="8.82" shape="5907.52,3407.19 5909.09,3409.15 5909.57,3410.98 5910.04,3412.82 5911.61,3414.79"/>
    </edge>
    <edge id=":2165856547_0" function="internal">
        <lane id=":2165856547_0_0" index="0" disallow="tram rail_urban rail rail_electric rail_fast ship" speed="22.22" length="8.17" shape="4224.44,3252.26 4226.40,3250.89 4227.52,3249.63 4228.62,3248.34 4230.54,3246.90"/>
    </edge>
    <edge id=":2169921397_0" function="internal">
        <lane id=":2169921397_0_0" index="0" disallow="tram rail_urban rail rail_electric rail_fast ship" speed="22.22" length="8.01" shape="4342.66,3202.44 4340.65,3203.69 4339.47,3204.85 4338.26,3205.97 4336.21,3207.10"/>
    </edge>
    <edge id=":2169921398_0" function="internal">
        <lane id=":2169921398_0_0" index="0" disallow="tram rail_urban rail rail_electric rail_fast ship" speed="22.22" length="8.12" shape="4235.28,3256.22 4233.24,3257.48 4232.03,3258.66 4230.81,3259.80 4228.73,3260.97"/>
        <lane id=":2169921398_0_1" index="1" disallow="tram rail_urban rail rail_electric rail_fast ship" speed="22.22" length="8.12" shape="4235.28,3256.22 4233.05,3257.02 4231.40,3257.19 4229.73,3257.33 4227.46,3258.04"/>
    </edge>
    <edge id=":2174243451_0" function="internal">
        <lane id=":2174243451_0_0" index="0" disallow="tram rail_urban rail rail_electric rail_fast ship" speed="22.22" length="8.21" shape="4783.62,2977.42 4781.60,2978.73 4780.42,2979.94 4779.24,2981.16 4777.22,2982.48"/>
        <lane id=":2174243451_0_1" index="1" disallow="tram rail_urban rail rail_electric rail_fast ship" speed="22.22" length="8.21" shape="4782.17,2974.56 4780.15,2975.87 4778.96,2977.09 4777.79,2978.31 4775.76,2979.63"/>
    </edge>
    <edge id=":220226963_0" function="internal">
        <lane id=":220226963_0_0" index="0" disallow="tram rail_urban rail rail_electric rail_fast ship" speed="15.65" length="5.02" shape="4494.93,3462.86 4493.78,3462.85 4492.98,3462.63 4492.20,3462.44 4491.06,3462.50"/>
        <lane id=":220226963_0_1" index="1" disallow="tram rail_urban rail rail_electric rail_fast ship" speed="15.65" length="5.02" shape="4496.53,3459.43 4494.73,3459.50 4493.48,3459.32 4492.24,3459.18 4490.45,3459.36"/>
    </edge>
    <edge id=":220226963_2" function="internal">
        <lane id=":220226963_2_0" index="0" disallow="tram rail_urban rail rail_electric rail_fast ship" speed="3.90" length="3.93" shape="4496.53,3459.43 4496.49,3455.50"/>
    </edge>
    <edge id=":220226963_6" function="internal">
        <lane id=":220226963_6_0" index="0" disallow="tram rail_urban rail rail_electric rail_fast ship" speed="3.90" length="1.65" shape="4496.49,3455.50 4496.47,3453.85"/>
    </edge>
    <edge id=":220226963_3" function="internal">
        <lane id=":220226963_3_0" index="0" disallow="tram rail_urban rail rail_electric rail_fast ship" speed="10.68" length="6.24" shape="4489.25,3453.07 4490.84,3452.81 4491.95,3452.58 4492.95,3452.12 4494.20,3451.14"/>
        <lane id=":220226963_3_1" index="1" disallow="tram rail_urban rail rail_electric rail_fast ship" speed="21.71" length="6.24" shape="4489.85,3456.22 4491.86,3455.65 4493.16,3455.01 4494.46,3454.38 4496.47,3453.85"/>
    </edge>
    <edge id=":220226963_5" function="internal">
        <lane id=":220226963_5_0" index="0" disallow="tram rail_urban rail rail_electric rail_fast ship" speed="3.65" length="2.48" shape="4489.85,3456.22 4491.18,3456.78 4491.73,3457.49 4491.69,3457.63"/>
    </edge>
    <edge id=":220226963_7" function="internal">
        <lane id=":220226963_7_0" index="0" disallow="tram rail_urban rail rail_electric rail_fast ship" speed="3.65" length="2.19" shape="4491.69,3457.63 4491.48,3458.35 4490.45,3459.36"/>
    </edge>
    <edge id=":2213155536_0" function="internal">