<?xml version="1.0" encoding="UTF-8"?>

<!-- generated on Mon Dec 23 15:42:46 2019 by Eclipse SUMO duarouter Version 1.4.0
<configuration xmlns:xsi="http://www.w3.org/2001/XMLSchema-instance" xsi:noNamespaceSchemaLocation="http://sumo.dlr.de/xsd/duarouterConfiguration.xsd">

    <input>
        <net-file value="/Users/charu/Projects/sumo/tools/2019-12-23-15-41-00/osm.net.xml"/>
        <route-files value="/Users/charu/Projects/sumo/tools/2019-12-23-15-41-00/osm.passenger.trips.xml"/>
    </input>

    <output>
        <output-file value="/Users/charu/Projects/sumo/tools/2019-12-23-15-41-00/osm.passenger.trips.xml.tmp"/>
        <write-trips value="true"/>
    </output>

    <time>
        <begin value="0"/>
        <end value="3600.0"/>
    </time>

    <report>
        <no-warnings value="true"/>
        <ignore-errors value="true"/>
        <no-step-log value="true"/>
    </report>

</configuration>
-->

<routes xmlns:xsi="http://www.w3.org/2001/XMLSchema-instance" xsi:noNamespaceSchemaLocation="http://sumo.dlr.de/xsd/routes_file.xsd">
    <vType id="veh_passenger" vClass="passenger"/>
    <trip id="veh0" type="veh_passenger" depart="0.00" departLane="best" from="417095072#0" to="-385389231"/>
    <trip id="veh1" type="veh_passenger" depart="2.28" departLane="best" from="417909009#0" to="417207982"/>
    <trip id="veh2" type="veh_passenger" depart="4.57" departLane="best" from="685743128#0" to="-52241965#3"/>
    <trip id="veh3" type="veh_passenger" depart="6.85" departLane="best" from="385389247#1" to="-406947696"/>
    <trip id="veh4" type="veh_passenger" depart="9.14" departLane="best" from="25030123#0" to="417074869#0"/>
    <trip id="veh5" type="veh_passenger" depart="11.42" departLane="best" from="-409525389" to="25030123#0"/>
    <trip id="veh6" type="veh_passenger" depart="13.70" departLane="best" from="417096017" to="417077815#0"/>
    <trip id="veh7" type="veh_passenger" depart="15.99" departLane="best" from="25401488" to="417095050#0"/>
    <trip id="veh8" type="veh_passenger" depart="18.27" departLane="best" from="517512632" to="-240576419#4"/>
    <trip id="veh9" type="veh_passenger" depart="20.56" departLane="best" from="517509938" to="417909009#0"/>
    <trip id="veh10" type="veh_passenger" depart="22.84" departLane="best" from="341031117#0" to="19452543"/>
    <trip id="veh11" type="veh_passenger" depart="25.12" departLane="best" from="720316632#5" to="385244412"/>
    <trip id="veh12" type="veh_passenger" depart="27.41" departLane="best" departSpeed="max" from="-52235123#4" to="-573807421#2"/>
    <trip id="veh13" type="veh_passenger" depart="29.69" departLane="best" from="564599064#0" to="417096017"/>
    <trip id="veh14" type="veh_passenger" depart="31.98" departLane="best" from="517509943#0" to="47785310#3"/>
    <trip id="veh15" type="veh_passenger" depart="34.26" departLane="best" from="417074877#0" to="88437814#0"/>
    <trip id="veh16" type="veh_passenger" depart="36.54" departLane="best" departSpeed="max" from="385244416#0" to="417077832#0"/>
    <trip id="veh17" type="veh_passenger" depart="38.83" departLane="best" from="52869637" to="417096034#0"/>
    <trip id="veh18" type="veh_passenger" depart="41.11" departLane="best" departSpeed="max" from="615027895#0" to="417094223#0"/>
    <trip id="veh19" type="veh_passenger" depart="43.39" departLane="best" from="417207948#0" to="-417100860#2"/>
    <trip id="veh20" type="veh_passenger" depart="45.68" departLane="best" from="26663020" to="341031098#0"/>
    <trip id="veh21" type="veh_passenger" depart="47.96" departLane="best" from="-517626044" to="30125081#0"/>
    <trip id="veh22" type="veh_passenger" depart="50.25" departLane="best" from="-53050569" to="341031065#2-AddedOffRampEdge"/>
    <trip id="veh23" type="veh_passenger" depart="52.53" departLane="best" from="417095063#0" to="385248807"/>
    <trip id="veh24" type="veh_passenger" depart="54.81" departLane="best" from="385243480#0" to="25819074#0"/>
    <trip id="veh25" type="veh_passenger" depart="57.10" departLane="best" from="30860729#0" to="721014326#1"/>
    <trip id="veh26" type="veh_passenger" depart="59.38" departLane="best" from="148263396#0" to="47785310#3"/>
    <trip id="veh27" type="veh_passenger" depart="61.67" departLane="best" departSpeed="max" from="-91932911#4" to="385389248#1"/>
    <trip id="veh28" type="veh_passenger" depart="63.95" departLane="best" from="8954767" to="417101517"/>
    <trip id="veh29" type="veh_passenger" depart="66.23" departLane="best" from="417074923#0" to="417208059#0"/>
    <trip id="veh30" type="veh_passenger" depart="68.52" departLane="best" departSpeed="max" from="531512599#0" to="517626043"/>
    <trip id="veh31" type="veh_passenger" depart="70.80" departLane="best" departSpeed="max" from="275400486#0" to="-416982092#1"/>
    <trip id="veh32" type="veh_passenger" depart="73.09" departLane="best" departSpeed="max" from="341031095#0" to="341031062#0"/>
    <trip id="veh33" type="veh_passenger" depart="75.37" departLane="best" from="244294799#0" to="721685581"/>
    <trip id="veh34" type="veh_passenger" depart="77.65" departLane="best" from="66215773" to="341031117#0"/>
    <trip id="veh35" type="veh_passenger" depart="79.94" departLane="best" from="417096026#0" to="385393916"/>
    <trip id="veh37" type="veh_passenger" depart="84.51" departLane="best" from="30125100" to="337017052#6"/>
    <trip id="veh38" type="veh_passenger" depart="86.79" departLane="best" from="417074939" to="341031056#0"/>
    <trip id="veh39" type="veh_passenger" depart="89.07" departLane="best" from="417077836#0" to="699958121#0"/>
    <trip id="veh42" type="veh_passenger" depart="95.93" departLane="best" departSpeed="max" from="-52235123#4" to="-417100860#2"/>
    <trip id="veh43" type="veh_passenger" depart="98.21" departLane="best" from="-685743128#1" to="417096034#0"/>
    <trip id="veh45" type="veh_passenger" depart="102.78" departLane="best" from="-417207899#1" to="385389249#0"/>
    <trip id="veh48" type="veh_passenger" depart="109.63" departLane="best" from="-337017053#1" to="449844307"/>
    <trip id="veh49" type="veh_passenger" depart="111.91" departLane="best" from="417101541#0" to="417074995"/>
    <trip id="veh50" type="veh_passenger" depart="114.20" departLane="best" from="30860729#0" to="417101517"/>
    <trip id="veh51" type="veh_passenger" depart="116.48" departLane="best" from="-688931793#9" to="416982180#0"/>
    <trip id="veh53" type="veh_passenger" depart="121.05" departLane="best" from="66215773" to="341031056#0"/>
    <trip id="veh54" type="veh_passenger" depart="123.33" departLane="best" from="417034462" to="240576419#0"/>
    <trip id="veh55" type="veh_passenger" depart="125.62" departLane="best" from="699686159#1" to="698370596#1"/>
    <trip id="veh56" type="veh_passenger" depart="127.90" departLane="best" from="341031062#0" to="417100878#0"/>
    <trip id="veh57" type="veh_passenger" depart="130.18" departLane="best" from="417094208" to="18016431#0"/>
    <trip id="veh58" type="veh_passenger" depart="132.47" departLane="best" from="417930333" to="417075006#0"/>
    <trip id="veh59" type="veh_passenger" depart="134.75" departLane="best" from="496826198#0" to="417074933#0"/>
    <trip id="veh60" type="veh_passenger" depart="137.04" departLane="best" from="-206786722" to="341031117#9-AddedOffRampEdge"/>
    <trip id="veh61" type="veh_passenger" depart="139.32" departLane="best" from="-367486604#7" to="720316630#0-AddedOnRampEdge"/>
    <trip id="veh62" type="veh_passenger" depart="141.60" departLane="best" from="674588132" to="65592874#0"/>
    <trip id="veh63" type="veh_passenger" depart="143.89" departLane="best" from="341031065#7" to="-417204478#1"/>
    <trip id="veh64" type="veh_passenger" depart="146.17" departLane="best" from="674588132" to="724444065#0"/>
    <trip id="veh65" type="veh_passenger" depart="148.46" departLane="best" from="-518492364" to="417071552"/>
    <trip id="veh67" type="veh_passenger" depart="153.02" departLane="best" from="449684827#0" to="-80210900"/>
    <trip id="veh68" type="veh_passenger" depart="155.31" departLane="best" from="416982207#0" to="417077828"/>
    <trip id="veh69" type="veh_passenger" depart="157.59" departLane="best" from="30125100" to="698370596#1"/>
    <trip id="veh70" type="veh_passenger" depart="159.88" departLane="best" from="417074884#0" to="47785310#3"/>
    <trip id="veh72" type="veh_passenger" depart="164.44" departLane="best" from="91932914" to="417101541#2"/>
    <trip id="veh73" type="veh_passenger" depart="166.73" departLane="best" from="385393914#0" to="417074909#3"/>
    <trip id="veh74" type="veh_passenger" depart="169.01" departLane="best" departSpeed="max" from="-703161720#1" to="30068204"/>
    <trip id="veh75" type="veh_passenger" depart="171.29" departLane="best" from="341031112#0" to="417095040"/>
    <trip id="veh76" type="veh_passenger" depart="173.58" departLane="best" departSpeed="max" from="275400486#0" to="30067826"/>
    <trip id="veh77" type="veh_passenger" depart="175.86" departLane="best" from="-428037557#4" to="417096248"/>
    <trip id="veh78" type="veh_passenger" depart="178.15" departLane="best" departSpeed="max" from="275400486#0" to="703161720#0"/>
    <trip id="veh79" type="veh_passenger" depart="180.43" departLane="best" from="614540729" to="-428037557#4"/>
    <trip id="veh80" type="veh_passenger" depart="182.71" departLane="best" departSpeed="max" from="275400486#0" to="417207948#0"/>
    <trip id="veh81" type="veh_passenger" depart="185.00" departLane="best" from="244294799#1" to="-8952340#8"/>
    <trip id="veh82" type="veh_passenger" depart="187.28" departLane="best" from="700187178" to="417094217#0"/>
    <trip id="veh83" type="veh_passenger" depart="189.57" departLane="best" from="416982180#0" to="521501747"/>
    <trip id="veh84" type="veh_passenger" depart="191.85" departLane="best" from="517509943#0" to="244294799#0"/>
    <trip id="veh85" type="veh_passenger" depart="194.13" departLane="best" from="-52241965#3" to="416982158"/>
    <trip id="veh86" type="veh_passenger" depart="196.42" departLane="best" from="385389248#0" to="417027129#0"/>
    <trip id="veh87" type="veh_passenger" depart="198.70" departLane="best" from="417208080#0" to="417207968"/>
    <trip id="veh88" type="veh_passenger" depart="200.99" departLane="best" from="8933515#0" to="-614926362"/>
    <trip id="veh89" type="veh_passenger" depart="203.27" departLane="best" from="385248802" to="385244418#0"/>
    <trip id="veh90" type="veh_passenger" depart="205.55" departLane="best" departSpeed="max" from="615027895#0" to="337017053#0"/>
    <trip id="veh91" type="veh_passenger" depart="207.84" departLane="best" from="385389247#1" to="341031065#7"/>
    <trip id="veh92" type="veh_passenger" depart="210.12" departLane="best" from="30067678#0" to="707878923"/>
    <trip id="veh93" type="veh_passenger" depart="212.41" departLane="best" from="409475173" to="693795524#0"/>
    <trip id="veh94" type="veh_passenger" depart="214.69" departLane="best" from="417074914#0" to="-417100883"/>
    <trip id="veh95" type="veh_passenger" depart="216.97" departLane="best" from="97096566#8" to="674588133#0"/>
    <trip id="veh97" type="veh_passenger" depart="221.54" departLane="best" from="56474351#0" to="206884308"/>
    <trip id="veh99" type="veh_passenger" depart="226.11" departLane="best" departSpeed="max" from="385244416#0" to="8967024#1"/>
    <trip id="veh100" type="veh_passenger" depart="228.39" departLane="best" from="30125105#0" to="52116200#0"/>
    <trip id="veh101" type="veh_passenger" depart="230.68" departLane="best" from="416953577#1-AddedOnRampEdge" to="416982092#0"/>
    <trip id="veh103" type="veh_passenger" depart="235.24" departLane="best" from="417074923#0" to="449844307"/>
    <trip id="veh104" type="veh_passenger" depart="237.53" departLane="best" from="-8944796#16" to="341031098#0"/>
    <trip id="veh106" type="veh_passenger" depart="242.10" departLane="best" from="417074891" to="5018672"/>
    <trip id="veh107" type="veh_passenger" depart="244.38" departLane="best" from="-417101898" to="417095025#0"/>
    <trip id="veh108" type="veh_passenger" depart="246.66" departLane="best" from="417034466" to="691488056#0"/>
    <trip id="veh109" type="veh_passenger" depart="248.95" departLane="best" departSpeed="max" from="-8969943#4" to="8379917#1"/>
    <trip id="veh110" type="veh_passenger" depart="251.23" departLane="best" from="-517626044" to="244294798#2"/>
    <trip id="veh111" type="veh_passenger" depart="253.52" departLane="best" departSpeed="max" from="417094203#0" to="417207968"/>
    <trip id="veh112" type="veh_passenger" depart="255.80" departLane="best" departSpeed="max" from="275400486#0" to="-707878808"/>
    <trip id="veh113" type="veh_passenger" depart="258.08" departLane="best" from="685678107#0" to="337017052#6"/>
    <trip id="veh114" type="veh_passenger" depart="260.37" departLane="best" departSpeed="max" from="417094203#0" to="417096034#0"/>
    <trip id="veh115" type="veh_passenger" depart="262.65" departLane="best" from="385389245#0" to="417095025#0"/>
    <trip id="veh116" type="veh_passenger" depart="264.94" departLane="best" from="417074817#1" to="721014326#0"/>
    <trip id="veh117" type="veh_passenger" depart="267.22" departLane="best" from="244294798#2" to="449684827#0"/>
    <trip id="veh118" type="veh_passenger" depart="269.50" departLane="best" departSpeed="max" from="275400486#0" to="385393916"/>
    <trip id="veh119" type="veh_passenger" depart="271.79" departLane="best" from="417100873#0" to="341031106#0"/>
    <trip id="veh120" type="veh_passenger" depart="274.07" departLane="best" departSpeed="max" from="341031095#0" to="514327810#0"/>
    <trip id="veh123" type="veh_passenger" depart="280.92" departLane="best" from="-514328695" to="27630358#0"/>
    <trip id="veh124" type="veh_passenger" depart="283.21" departLane="best" from="30125105#0" to="720316632#5"/>
    <trip id="veh125" type="veh_passenger" depart="285.49" departLane="best" from="674588135" to="699686160#0"/>
    <trip id="veh127" type="veh_passenger" depart="290.06" departLane="best" from="53050572#0" to="417916313#0"/>
    <trip id="veh128" type="veh_passenger" depart="292.34" departLane="best" from="417094210#0" to="8968729#0"/>
    <trip id="veh130" type="veh_passenger" depart="296.91" departLane="best" from="517626042" to="341031106#0"/>
    <trip id="veh131" type="veh_passenger" depart="299.20" departLane="best" from="417096032#0" to="721680003#0"/>
    <trip id="veh132" type="veh_passenger" depart="301.48" departLane="best" from="-707878808" to="-703161721#2"/>
    <trip id="veh133" type="veh_passenger" depart="303.76" departLane="best" from="-66215773" to="417077836#0"/>
    <trip id="veh134" type="veh_passenger" depart="306.05" departLane="best" from="30911313" to="417096017"/>
    <trip id="veh135" type="veh_passenger" depart="308.33" departLane="best" from="417208034" to="25031035"/>
    <trip id="veh136" type="veh_passenger" depart="310.61" departLane="best" from="417095050#0" to="341031056#0"/>
    <trip id="veh137" type="veh_passenger" depart="312.90" departLane="best" from="417027115#0" to="703161720#0"/>
    <trip id="veh138" type="veh_passenger" depart="315.18" departLane="best" from="564599064#0" to="-531512599#3"/>
    <trip id="veh139" type="veh_passenger" depart="317.47" departLane="best" from="385389248#0" to="341031065#2-AddedOffRampEdge"/>
    <trip id="veh140" type="veh_passenger" depart="319.75" departLane="best" from="-240576419#4" to="517514174"/>
    <trip id="veh141" type="veh_passenger" depart="322.03" departLane="best" from="417095068#0" to="341031053#0"/>
    <trip id="veh142" type="veh_passenger" depart="324.32" departLane="best" from="417916313#0" to="417077832#0"/>
    <trip id="veh143" type="veh_passenger" depart="326.60" departLane="best" from="385389249#0" to="-30124986#1"/>
    <trip id="veh144" type="veh_passenger" depart="328.89" departLane="best" from="-517179694" to="699686163"/>
    <trip id="veh145" type="veh_passenger" depart="331.17" departLane="best" from="692051104" to="417077815#0"/>
    <trip id="veh146" type="veh_passenger" depart="333.45" departLane="best" from="53050573#0" to="417095019"/>
    <trip id="veh148" type="veh_passenger" depart="338.02" departLane="best" from="341031065#7" to="699958121#0"/>
    <trip id="veh149" type="veh_passenger" depart="340.31" departLane="best" from="514327826" to="693795524#0"/>
    <trip id="veh150" type="veh_passenger" depart="342.59" departLane="best" from="690062846" to="264035690"/>
    <trip id="veh151" type="veh_passenger" depart="344.87" departLane="best" from="30067678#0" to="-66215773"/>
    <trip id="veh152" type="veh_passenger" depart="347.16" departLane="best" from="5010394#0" to="699686163"/>
    <trip id="veh153" type="veh_passenger" depart="349.44" departLane="best" from="385248803" to="417096034#0"/>
    <trip id="veh154" type="veh_passenger" depart="351.73" departLane="best" from="-8944796#16" to="720316630#0-AddedOnRampEdge"/>
    <trip id="veh155" type="veh_passenger" depart="354.01" departLane="best" departSpeed="max" from="615027895#0" to="8933515#0"/>
    <trip id="veh156" type="veh_passenger" depart="356.29" departLane="best" from="517514173" to="699686161"/>
    <trip id="veh157" type="veh_passenger" depart="358.58" departLane="best" from="-406947696" to="496826198#0"/>
    <trip id="veh158" type="veh_passenger" depart="360.86" departLane="best" from="341031109#1-AddedOnRampEdge" to="720316630#0-AddedOnRampEdge"/>
    <trip id="veh160" type="veh_passenger" depart="365.43" departLane="best" from="5018671" to="-689698692#2"/>
    <trip id="veh162" type="veh_passenger" depart="370.00" departLane="best" from="25401595#0" to="58674676"/>
    <trip id="veh163" type="veh_passenger" depart="372.28" departLane="best" departSpeed="max" from="416957327#0" to="341031109#1"/>
    <trip id="veh164" type="veh_passenger" depart="374.56" departLane="best" from="514327810#0" to="30068210#0"/>
    <trip id="veh165" type="veh_passenger" depart="376.85" departLane="best" from="-394370938#2" to="244294799#1"/>
    <trip id="veh166" type="veh_passenger" depart="379.13" departLane="best" from="341031109#0" to="694613658"/>
    <trip id="veh167" type="veh_passenger" depart="381.42" departLane="best" from="721680005" to="341031065#7"/>
    <trip id="veh168" type="veh_passenger" depart="383.70" departLane="best" from="417095077#0" to="385393916"/>
    <trip id="veh169" type="veh_passenger" depart="385.98" departLane="best" from="88437814#0-AddedOnRampEdge" to="417074986"/>
    <trip id="veh170" type="veh_passenger" depart="388.27" departLane="best" from="725437977#0" to="240576419#0"/>
    <trip id="veh171" type="veh_passenger" depart="390.55" departLane="best" from="721014326#1" to="341031058#0"/>
    <trip id="veh172" type="veh_passenger" depart="392.84" departLane="best" from="-66215773" to="416982180#0"/>
    <trip id="veh173" type="veh_passenger" depart="395.12" departLane="best" from="417208080#0" to="341031117#0"/>
    <trip id="veh174" type="veh_passenger" depart="397.40" departLane="best" departSpeed="max" from="417094203#0" to="417074884#0"/>
    <trip id="veh175" type="veh_passenger" depart="399.69" departLane="best" departSpeed="max" from="385244416#0" to="417094223#0"/>
    <trip id="veh176" type="veh_passenger" depart="401.97" departLane="best" from="30067936#0" to="417922881"/>
    <trip id="veh177" type="veh_passenger" depart="404.26" departLane="best" from="-211559136#3" to="709688683"/>
    <trip id="veh178" type="veh_passenger" depart="406.54" departLane="best" from="417074877#0" to="449844307"/>
    <trip id="veh179" type="veh_passenger" depart="408.82" departLane="best" from="417916313#0" to="417207948#0"/>
    <trip id="veh180" type="veh_passenger" depart="411.11" departLane="best" departSpeed="max" from="38085327" to="-417930335#1"/>
    <trip id="veh181" type="veh_passenger" depart="413.39" departLane="best" departSpeed="max" from="341031095#0" to="688685729"/>
    <trip id="veh182" type="veh_passenger" depart="415.68" departLane="best" from="417208059#0" to="341031106#0"/>
    <trip id="veh183" type="veh_passenger" depart="417.96" departLane="best" from="341031065#7" to="409475173"/>
    <trip id="veh184" type="veh_passenger" depart="420.24" departLane="best" from="385248802" to="341031098#0"/>
    <trip id="veh185" type="veh_passenger" depart="422.53" departLane="best" from="-703161721#2" to="416953590#0"/>
    <trip id="veh186" type="veh_passenger" depart="424.81" departLane="best" from="703161721#0" to="417207982"/>
    <trip id="veh187" type="veh_passenger" depart="427.10" departLane="best" from="691830765" to="417096032#0"/>
    <trip id="veh188" type="veh_passenger" depart="429.38" departLane="best" from="341031065#0" to="417077828"/>
    <trip id="veh189" type="veh_passenger" depart="431.66" departLane="best" from="-206786722" to="341031098#0"/>
    <trip id="veh190" type="veh_passenger" depart="433.95" departLane="best" from="385389249#0" to="417095009"/>
    <trip id="veh191" type="veh_passenger" depart="436.23" departLane="best" from="417096026#0" to="417027129#0"/>
    <trip id="veh193" type="veh_passenger" depart="440.80" departLane="best" from="416982191#0" to="700219904#0"/>
    <trip id="veh194" type="veh_passenger" depart="443.08" departLane="best" from="514327826" to="211559136#0"/>
    <trip id="veh195" type="veh_passenger" depart="445.37" departLane="best" from="-518492363" to="417074895#1"/>
    <trip id="veh196" type="veh_passenger" depart="447.65" departLane="best" from="417095040" to="385244412"/>
    <trip id="veh197" type="veh_passenger" depart="449.93" departLane="best" from="517626042" to="514327810#0"/>
    <trip id="veh198" type="veh_passenger" depart="452.22" departLane="best" from="417100878#0" to="30068204"/>
    <trip id="veh199" type="veh_passenger" depart="454.50" departLane="best" from="240576419#0" to="-385243493"/>
    <trip id="veh201" type="veh_passenger" depart="459.07" departLane="best" from="56474351#0" to="-514328695"/>
    <trip id="veh202" type="veh_passenger" depart="461.35" departLane="best" from="385248809" to="417096248"/>
    <trip id="veh204" type="veh_passenger" depart="465.92" departLane="best" departSpeed="max" from="417027120" to="30911333#0"/>
    <trip id="veh205" type="veh_passenger" depart="468.21" departLane="best" from="417096026#0" to="-211559136#3"/>
    <trip id="veh206" type="veh_passenger" depart="470.49" departLane="best" departSpeed="max" from="417922880#0" to="517514174"/>
    <trip id="veh207" type="veh_passenger" depart="472.77" departLane="best" from="-614926362" to="416982116#0"/>
    <trip id="veh208" type="veh_passenger" depart="475.06" departLane="best" from="149436523#0" to="752177536"/>
    <trip id="veh209" type="veh_passenger" depart="477.34" departLane="best" from="417071555#0" to="-417100883"/>
    <trip id="veh210" type="veh_passenger" depart="479.63" departLane="best" from="30067678#0" to="688685729"/>
    <trip id="veh211" type="veh_passenger" depart="481.91" departLane="best" from="416953590#0" to="53050577-AddedOffRampEdge"/>
    <trip id="veh212" type="veh_passenger" depart="484.19" departLane="best" from="417096253" to="8969943#0"/>
    <trip id="veh213" type="veh_passenger" depart="486.48" departLane="best" departSpeed="max" from="417094203#0" to="724444065#0"/>
    <trip id="veh214" type="veh_passenger" depart="488.76" departLane="best" from="685678107#0" to="417096030"/>
    <trip id="veh215" type="veh_passenger" depart="491.05" departLane="best" from="417208059#0" to="417074869#0"/>
    <trip id="veh216" type="veh_passenger" depart="493.33" departLane="best" from="52967854#0" to="417077828"/>
    <trip id="veh217" type="veh_passenger" depart="495.61" departLane="best" from="689955910#0" to="5018671"/>
    <trip id="veh218" type="veh_passenger" depart="497.90" departLane="best" from="416982191#0" to="341031053#0"/>
    <trip id="veh219" type="veh_passenger" depart="500.18" departLane="best" from="28714162" to="417100873#0"/>
    <trip id="veh220" type="veh_passenger" depart="502.46" departLane="best" from="449684827#0" to="417074914#0"/>
    <trip id="veh221" type="veh_passenger" depart="504.75" departLane="best" from="417095014" to="341031065#2"/>
    <trip id="veh222" type="veh_passenger" depart="507.03" departLane="best" from="-517516025#1" to="341031098#0"/>
    <trip id="veh223" type="veh_passenger" depart="509.32" departLane="best" from="30906781#0" to="341031117#7"/>
    <trip id="veh224" type="veh_passenger" depart="511.60" departLane="best" from="417074884#0" to="149436506#4"/>
    <trip id="veh225" type="veh_passenger" depart="513.88" departLane="best" departSpeed="max" from="275400486#0" to="417909006"/>
    <trip id="veh226" type="veh_passenger" depart="516.17" departLane="best" from="417207955#0" to="-417207931#2"/>
    <trip id="veh227" type="veh_passenger" depart="518.45" departLane="best" from="385248804#0" to="417077810"/>
    <trip id="veh229" type="veh_passenger" depart="523.02" departLane="best" from="385389245#0" to="703161720#0"/>
    <trip id="veh230" type="veh_passenger" depart="525.30" departLane="best" from="417077836#0" to="417909008"/>
    <trip id="veh231" type="veh_passenger" depart="527.59" departLane="best" from="58674678" to="517512632"/>
    <trip id="veh232" type="veh_passenger" depart="529.87" departLane="best" departSpeed="max" from="385244416#0" to="-211559136#3"/>
    <trip id="veh233" type="veh_passenger" depart="532.16" departLane="best" departSpeed="max" from="35971744#0" to="514327826"/>
    <trip id="veh235" type="veh_passenger" depart="536.72" departLane="best" from="385389245#0" to="5018672"/>
    <trip id="veh236" type="veh_passenger" depart="539.01" departLane="best" from="417074895#1" to="417096017"/>
    <trip id="veh237" type="veh_passenger" depart="541.29" departLane="best" from="25401488" to="30067737#0"/>
    <trip id="veh238" type="veh_passenger" depart="543.58" departLane="best" from="385393912" to="-406947696"/>
    <trip id="veh239" type="veh_passenger" depart="545.86" departLane="best" from="341031112#0" to="417207996#0"/>
    <trip id="veh240" type="veh_passenger" depart="548.14" departLane="best" from="385248802" to="206884308"/>
    <trip id="veh241" type="veh_passenger" depart="550.43" departLane="best" from="417094223#0" to="-394370938#2"/>
    <trip id="veh242" type="veh_passenger" depart="552.71" departLane="best" from="385248797" to="417094208"/>
    <trip id="veh243" type="veh_passenger" depart="555.00" departLane="best" from="-409525389" to="417101523"/>
    <trip id="veh244" type="veh_passenger" depart="557.28" departLane="best" from="-707878814" to="417027129#0"/>
    <trip id="veh245" type="veh_passenger" depart="559.56" departLane="best" from="-417100860#3" to="385389248#1"/>
    <trip id="veh246" type="veh_passenger" depart="561.85" departLane="best" from="244294799#1" to="367486604#8"/>
    <trip id="veh247" type="veh_passenger" depart="564.13" departLane="best" from="417922887" to="385389248#1"/>
    <trip id="veh248" type="veh_passenger" depart="566.42" departLane="best" from="30067884" to="-518492362"/>
    <trip id="veh249" type="veh_passenger" depart="568.70" departLane="best" from="-367486604#7" to="417075006#0"/>
    <trip id="veh250" type="veh_passenger" depart="570.98" departLane="best" from="97096566#8" to="385248799#0"/>
    <trip id="veh251" type="veh_passenger" depart="573.27" departLane="best" from="417096017" to="52116200#0"/>
    <trip id="veh253" type="veh_passenger" depart="577.83" departLane="best" from="707878923" to="25030123#0"/>
    <trip id="veh254" type="veh_passenger" depart="580.12" departLane="best" from="-385243493" to="18016431#0"/>
    <trip id="veh255" type="veh_passenger" depart="582.40" departLane="best" departSpeed="max" from="-703161720#1" to="417207948#0"/>
    <trip id="veh256" type="veh_passenger" depart="584.69" departLane="best" from="417074969" to="30067678#0"/>
    <trip id="veh259" type="veh_passenger" depart="591.54" departLane="best" departSpeed="max" from="417922880#0" to="-702540632#3"/>
    <trip id="veh260" type="veh_passenger" depart="593.82" departLane="best" from="518485835#0" to="8379917#1"/>
    <trip id="veh261" type="veh_passenger" depart="596.11" departLane="best" from="-66215773" to="-385389231"/>
    <trip id="veh262" type="veh_passenger" depart="598.39" departLane="best" from="341031065#9" to="417207982"/>
    <trip id="veh263" type="veh_passenger" depart="600.67" departLane="best" from="720316632#5" to="385393916"/>
    <trip id="veh265" type="veh_passenger" depart="605.24" departLane="best" from="417101571#0" to="417096034#0"/>
    <trip id="veh266" type="veh_passenger" depart="607.53" departLane="best" from="-53050572#3" to="517516025#0"/>
    <trip id="veh268" type="veh_passenger" depart="612.09" departLane="best" departSpeed="max" from="-703161720#1" to="8966516#0"/>
    <trip id="veh269" type="veh_passenger" depart="614.38" departLane="best" from="5018670#6" to="385248797"/>
    <trip id="veh270" type="veh_passenger" depart="616.66" departLane="best" from="385389249#0" to="385248811#1"/>
    <trip id="veh271" type="veh_passenger" depart="618.95" departLane="best" from="417071525" to="385248792"/>
    <trip id="veh272" type="veh_passenger" depart="621.23" departLane="best" from="56474351#0" to="614926362"/>
    <trip id="veh273" type="veh_passenger" depart="623.51" departLane="best" from="-573807421#2" to="8379917#1"/>
    <trip id="veh274" type="veh_passenger" depart="625.80" departLane="best" from="417095063#0" to="64167664#0"/>
    <trip id="veh275" type="veh_passenger" depart="628.08" departLane="best" from="417207955#0" to="416982180#0"/>
    <trip id="veh277" type="veh_passenger" depart="632.65" departLane="best" from="30860753#0" to="564599064#0"/>
    <trip id="veh278" type="veh_passenger" depart="634.93" departLane="best" from="417074877#0" to="417071544#0"/>