<?xml version="1.0" encoding="UTF-8"?>
<additional>
    <tlLogic id="331734548" type="actuated" programID="a" offset="0">
        <phase duration="5" state="GGgrrGGG"/>
        <phase duration="3" state="yygrryyy"/>
        <phase duration="4" state="GGGrrrrr"/>
        <phase duration="3" state="yyyrrrrr"/>
        <phase duration="4" state="rrrGGGrr"/>
        <phase duration="3" state="rrryyyrr"/>
    </tlLogic>
    <tlLogic id="65608528" type="actuated" programID="a" offset="0">
        <phase duration="9" state="GggrrrGGg"/>
        <phase duration="3" state="yyyrrryyy"/>
        <phase duration="4" state="rrrGGgGrr"/>
        <phase duration="3" state="rrryyyyrr"/>
    </tlLogic>
    <tlLogic id="GS_339569502" type="actuated" programID="a" offset="0">
        <phase duration="4" state="GGrrrrrGGggrrr"/>
        <phase duration="6" state="yyrrrrryyggrrr"/>
        <phase duration="4" state="rrGGrrrrrGGrrr"/>
        <phase duration="6" state="rryyrrrrryyrrr"/>
        <phase duration="6" state="rrrrGGgrrrrGGr"/>
        <phase duration="6" state="rrrryygrrrryyr"/>
        <phase duration="4" state="rrrrrrGrrrrrrG"/>
        <phase duration="6" state="rrrrrryrrrrrry"/>
    </tlLogic>
    <tlLogic id="GS_65484382" type="actuated" programID="a" offset="0">
        <phase duration="6" state="rrrrGGGgGGgg"/>
        <phase duration="3" state="rrrryyyyyyyy"/>
        <phase duration="6" state="GGGGrrrrrrrr"/>
        <phase duration="3" state="yyyyrrrrrrrr"/>
    </tlLogic>
    <tlLogic id="GS_cluster_1613650544_1613650546_26050456_281623599" type="actuated" programID="a" offset="0">
        <phase duration="4" state="GGGggrrrrrGGGGg"/>
        <phase duration="3" state="yyyggrrrrryyyyy"/>
        <phase duration="5" state="GGGGGrrrrrrrrrr"/>
        <phase duration="3" state="yyyyyrrrrrrrrrr"/>
        <phase duration="8" state="rrrrrGGGGgGrrrr"/>
        <phase duration="3" state="rrrrryyyyyyrrrr"/>
    </tlLogic>
    <tlLogic id="GS_cluster_187643164_5367061433_5367061453_671799105" type="actuated" programID="a" offset="0">
        <phase duration="5" state="rrrrGGGGggrrrrrGGGGgg"/>
        <phase duration="5" state="rrrryyyyggrrrrryyyygg"/>
        <phase duration="13" state="rrrrrrrrGGrrrrrrrrrGG"/>
        <phase duration="5" state="rrrrrrrryyrrrrrrrrryy"/>
        <phase duration="16" state="GGrrrrrrrrGGGrrrrrrrr"/>
        <phase duration="5" state="yyrrrrrrrryyyrrrrrrrr"/>
        <phase duration="4" state="rrGGrrrrrrrrrGGrrrrrr"/>
        <phase duration="5" state="rryyrrrrrrrrryyrrrrrr"/>
    </tlLogic>
    <tlLogic id="GS_cluster_194905625_281367796_448809689_448809699" type="actuated" programID="a" offset="0">
        <phase duration="4" state="GGGGggrrrrrGGGGggrrrr"/>
        <phase duration="3" state="yyyyggrrrrryyyyggrrrr"/>
        <phase duration="6" state="rrrrGGrrrrrrrrrGGrrrr"/>
        <phase duration="3" state="rrrryyrrrrrrrrryyrrrr"/>
        <phase duration="4" state="rrrrrrGGGggrrrrrrGGgg"/>
        <phase duration="3" state="rrrrrryyyggrrrrrryygg"/>
        <phase duration="4" state="rrrrrrrrrGGrrrrrrrrGG"/>
        <phase duration="3" state="rrrrrrrrryyrrrrrrrryy"/>
    </tlLogic>
    <tlLogic id="GS_cluster_2476575660_3058051528_33343473_5368814040" type="actuated" programID="a" offset="0">
        <phase duration="4" state="GGGGgGGggrrrr"/>
        <phase duration="3" state="yyyyyyyggrrrr"/>
        <phase duration="4" state="rrrrrGGGGrrrr"/>
        <phase duration="3" state="rrrrryyyyrrrr"/>
        <phase duration="7" state="GrrrrrrrrGGGg"/>
        <phase duration="3" state="yrrrrrrrryyyy"/>
    </tlLogic>
    <tlLogic id="GS_cluster_2498006327_281615635" type="actuated" programID="a" offset="0">
        <phase duration="4" state="GGggrrrGGGg"/>
        <phase duration="5" state="yyggrrryyyy"/>
        <phase duration="5" state="GGGGrrrrrrr"/>
        <phase duration="5" state="yyyyrrrrrrr"/>
        <phase duration="7" state="rrrrGGGGrrr"/>
        <phase duration="5" state="rrrryyyyrrr"/>
    </tlLogic>
    <tlLogic id="GS_cluster_272197322_272197323_65438360" type="actuated" programID="a" offset="0">
        <phase duration="6" state="GGGGgGGgggrrrrrrrrr"/>
        <phase duration="6" state="yyyyyyygggrrrrrrrrr"/>
        <phase duration="4" state="rrrrrGGGGGrrrrrrrrr"/>
        <phase duration="6" state="rrrrryyyyyrrrrrrrrr"/>
        <phase duration="4" state="rrrrrrrrrrGGGGgGrrr"/>
        <phase duration="6" state="rrrrrrrrrryyyyyyrrr"/>
        <phase duration="4" state="GrrrrrrrrrrrrrrGGGG"/>
        <phase duration="6" state="yrrrrrrrrrrrrrryyyy"/>
    </tlLogic>
    <tlLogic id="GS_cluster_272197385_65573053" type="actuated" programID="a" offset="0">
        <phase duration="4" state="rrrGGGgGGgg"/>
        <phase duration="6" state="rrryyyyyygg"/>
        <phase duration="4" state="rrrrrrrGGGG"/>
        <phase duration="6" state="rrrrrrryyyy"/>
        <phase duration="7" state="GGGGrrrrrrr"/>
        <phase duration="6" state="yyyyrrrrrrr"/>
    </tlLogic>
    <tlLogic id="GS_cluster_287239925_491270475_790843396" type="actuated" programID="a" offset="0">
        <phase duration="6" state="GGGGGGrrr"/>
        <phase duration="3" state="yyyyyyrrr"/>
        <phase duration="6" state="rrrGGGGGG"/>
        <phase duration="3" state="rrryyyyyy"/>
    </tlLogic>
    <tlLogic id="GS_cluster_314513157_65658312_790843397" type="actuated" programID="a" offset="0">
        <phase duration="9" state="rrrrGGGGggrrrrGGGGgg"/>
        <phase duration="6" state="rrrryyyyggrrrryyyygg"/>
        <phase duration="4" state="rrrrrrrrGGrrrrrrrrGG"/>
        <phase duration="6" state="rrrrrrrryyrrrrrrrryy"/>
        <phase duration="4" state="GGGrrrrrrrGGggrrrrrr"/>
        <phase duration="6" state="yyyrrrrrrryyggrrrrrr"/>
        <phase duration="10" state="rrrGrrrrrrrrGGrrrrrr"/>
        <phase duration="6" state="rrryrrrrrrrryyrrrrrr"/>
    </tlLogic>
    <tlLogic id="GS_cluster_331741854_469840932" type="actuated" programID="a" offset="0">
        <phase duration="7" state="GGggrrrGGGg"/>
        <phase duration="6" state="yyggrrryyyy"/>
        <phase duration="4" state="GGGGrrrrrrr"/>
        <phase duration="6" state="yyyyrrrrrrr"/>
        <phase duration="4" state="rrrrGGgGrrr"/>
        <phase duration="6" state="rrrryyyyrrr"/>
    </tlLogic>
    <tlLogic id="cluster_196383924_331181706" type="actuated" programID="a" offset="0">
        <phase duration="5" state="GGGGrrrrrrr"/>
        <phase duration="6" state="yyyyrrrrrrr"/>
        <phase duration="5" state="rrrGGGgGGrr"/>
        <phase duration="6" state="rrryyyyyyrr"/>
        <phase duration="5" state="GGrrrrrGGGg"/>
        <phase duration="6" state="yyrrrrryyyy"/>
    </tlLogic>
    <tlLogic id="cluster_201825904_240296607" type="actuated" programID="a" offset="0">
        <phase duration="4" state="rrrrGGGGggrrrrGGGGgg"/>
        <phase duration="5" state="rrrryyyyggrrrryyyygg"/>
        <phase duration="11" state="rrrrrrrrGGrrrrrrrrGG"/>
        <phase duration="5" state="rrrrrrrryyrrrrrrrryy"/>
        <phase duration="8" state="GGrrrrrrrrGGggrrrrrr"/>
        <phase duration="5" state="yyrrrrrrrryyggrrrrrr"/>
        <phase duration="4" state="rrGGrrrrrrrrGGrrrrrr"/>
        <phase duration="5" state="rryyrrrrrrrryyrrrrrr"/>
    </tlLogic>
    <tlLogic id="cluster_247401272_279895969_641126426" type="actuated" programID="a" offset="0">
        <phase duration="5" state="rrrrGGGGgGGGgg"/>
        <phase duration="4" state="rrrryyyyyyyygg"/>
        <phase duration="6" state="rrrrrrrrrGGGGG"/>
        <phase duration="4" state="rrrrrrrrryyyyy"/>
        <phase duration="4" state="GGGgGrrrrrrrrr"/>
        <phase duration="4" state="yyyyyrrrrrrrrr"/>
    </tlLogic>
    <tlLogic id="cluster_3059622210_708160091" type="actuated" programID="a" offset="0">
        <phase duration="7" state="rrrGGgGrr"/>
        <phase duration="6" state="rrryyyyrr"/>
        <phase duration="4" state="GrrrrrGGg"/>
        <phase duration="6" state="yrrrrryyy"/>
        <phase duration="4" state="GGgGrrrrr"/>
        <phase duration="6" state="yyyyrrrrr"/>
    </tlLogic>
    <tlLogic id="cluster_3232171141_331741997" type="actuated" programID="a" offset="0">
        <phase duration="5" state="GGggrrrGGGg"/>
        <phase duration="6" state="yyggrrryyyy"/>
        <phase duration="4" state="GGGGrrrrrrr"/>
        <phase duration="6" state="yyyyrrrrrrr"/>
        <phase duration="5" state="rrrrGGgGrrr"/>
        <phase duration="6" state="rrrryyyyrrr"/>
    </tlLogic>
    <tlLogic id="cluster_331742839_65449613" type="actuated" programID="a" offset="0">
        <phase duration="4" state="GGggrrrGGGg"/>
        <phase duration="6" state="yyggrrryyyy"/>
        <phase duration="4" state="GGGGrrrrrrr"/>
        <phase duration="6" state="yyyyrrrrrrr"/>
        <phase duration="10" state="rrrrGGgGrrr"/>
        <phase duration="6" state="rrrryyyyrrr"/>
    </tlLogic>
    <tlLogic id="cluster_5365036356_5365036357_65437033_65498221" type="actuated" programID="a" offset="0">
        <phase duration="4" state="GGGgGGggrrrr"/>
        <phase duration="6" state="yyyyyyggrrrr"/>
        <phase duration="9" state="rrrrGGGGrrrr"/>
        <phase duration="6" state="rrrryyyyrrrr"/>
        <phase duration="4" state="GrrrrrrrGGGg"/>
        <phase duration="6" state="yrrrrrrryyyy"/>
    </tlLogic>
</additional>
