<routes><vType accel="3.5" decel="2.2" id="veh_passenger" length="5" maxSpeed="10" sigma="1.0" vClass="passenger" /><trip depart="0.00" departLane="best" departSpeed="max" from="e_g_w" id="veh0" to="n_g_n" type="veh_passenger" /><trip depart="0.00" departLane="best" departSpeed="max" from="e_g_w" id="veh1" to="n_g_n" type="veh_passenger" /><trip depart="0.00" departLane="best" departSpeed="max" from="e_g_w" id="veh2" to="n_g_n" type="veh_passenger" /><trip depart="0.00" departLane="best" departSpeed="max" from="e_g_w" id="veh3" to="n_g_n" type="veh_passenger" /><trip depart="0.00" departLane="best" departSpeed="max" from="e_g_w" id="veh4" to="n_g_n" type="veh_passenger" /><trip depart="0.00" departLane="best" departSpeed="max" from="e_g_w" id="veh5" to="n_g_n" type="veh_passenger" /><trip depart="0.00" departLane="best" departSpeed="max" from="e_g_w" id="veh6" to="n_g_n" type="veh_passenger" /><trip depart="0.00" departLane="best" departSpeed="max" from="e_g_w" id="veh7" to="s_g_s" type="veh_passenger" /><trip depart="0.00" departLane="best" departSpeed="max" from="e_g_w" id="veh8" to="s_g_s" type="veh_passenger" /><trip depart="0.00" departLane="best" departSpeed="max" from="e_g_w" id="veh9" to="s_g_s" type="veh_passenger" /><trip depart="0.00" departLane="best" departSpeed="max" from="e_g_w" id="veh10" to="s_g_s" type="veh_passenger" /><trip depart="0.00" departLane="best" departSpeed="max" from="e_g_w" id="veh11" to="s_g_s" type="veh_passenger" /><trip depart="0.00" departLane="best" departSpeed="max" from="e_g_w" id="veh12" to="s_g_s" type="veh_passenger" /><trip depart="0.00" departLane="best" departSpeed="max" from="e_g_w" id="veh13" to="s_g_s" type="veh_passenger" /><trip depart="0.00" departLane="best" departSpeed="max" from="e_g_w" id="veh14" to="w_g_w" type="veh_passenger" /><trip depart="0.00" departLane="best" departSpeed="max" from="e_g_w" id="veh15" to="w_g_w" type="veh_passenger" /><trip depart="0.00" departLane="best" departSpeed="max" from="e_g_w" id="veh16" to="w_g_w" type="veh_passenger" /><trip depart="0.00" departLane="best" departSpeed="max" from="e_g_w" id="veh17" to="w_g_w" type="veh_passenger" /><trip depart="0.00" departLane="best" departSpeed="max" from="e_g_w" id="veh18" to="w_g_w" type="veh_passenger" /><trip depart="0.00" departLane="best" departSpeed="max" from="e_g_w" id="veh19" to="w_g_w" type="veh_passenger" /><trip depart="0.00" departLane="best" departSpeed="max" from="e_g_w" id="veh20" to="w_g_w" type="veh_passenger" /><trip depart="0.00" departLane="best" departSpeed="max" from="e_g_w" id="veh21" to="w_g_w" type="veh_passenger" /><trip depart="0.00" departLane="best" departSpeed="max" from="e_g_w" id="veh22" to="w_g_w" type="veh_passenger" /><trip depart="0.00" departLane="best" departSpeed="max" from="e_g_w" id="veh23" to="w_g_w" type="veh_passenger" /><trip depart="0.00" departLane="best" departSpeed="max" from="e_g_w" id="veh24" to="w_g_w" type="veh_passenger" /><trip depart="0.00" departLane="best" departSpeed="max" from="e_g_w" id="veh25" to="w_g_w" type="veh_passenger" /><trip depart="0.00" departLane="best" departSpeed="max" from="e_g_w" id="veh26" to="w_g_w" type="veh_passenger" /><trip depart="0.00" departLane="best" departSpeed="max" from="e_g_w" id="veh27" to="w_g_w" type="veh_passenger" /><trip depart="0.00" departLane="best" departSpeed="max" from="e_g_w" id="veh28" to="w_g_w" type="veh_passenger" /><trip depart="0.00" departLane="best" departSpeed="max" from="n_g_s" id="veh29" to="s_g_s" type="veh_passenger" /><trip depart="0.00" departLane="best" departSpeed="max" from="n_g_s" id="veh30" to="w_g_w" type="veh_passenger" /><trip depart="0.00" departLane="best" departSpeed="max" from="n_g_s" id="veh31" to="e_g_e" type="veh_passenger" /><trip depart="0.00" departLane="best" departSpeed="max" from="n_g_s" id="veh32" to="e_g_e" type="veh_passenger" /><trip depart="0.00" departLane="best" departSpeed="max" from="n_g_s" id="veh33" to="e_g_e" type="veh_passenger" /><trip depart="0.00" departLane="best" departSpeed="max" from="n_g_s" id="veh34" to="e_g_e" type="veh_passenger" /><trip depart="0.00" departLane="best" departSpeed="max" from="n_g_s" id="veh35" to="e_g_e" type="veh_passenger" /><trip depart="0.00" departLane="best" departSpeed="max" from="n_g_s" id="veh36" to="e_g_e" type="veh_passenger" /><trip depart="0.00" departLane="best" departSpeed="max" from="n_g_s" id="veh37" to="e_g_e" type="veh_passenger" /><trip depart="0.00" departLane="best" departSpeed="max" from="n_g_s" id="veh38" to="e_g_e" type="veh_passenger" /><trip depart="0.00" departLane="best" departSpeed="max" from="n_g_s" id="veh39" to="e_g_e" type="veh_passenger" /><trip depart="0.00" departLane="best" departSpeed="max" from="n_g_s" id="veh40" to="e_g_e" type="veh_passenger" /><trip depart="0.00" departLane="best" departSpeed="max" from="n_g_s" id="veh41" to="e_g_e" type="veh_passenger" /><trip depart="0.00" departLane="best" departSpeed="max" from="n_g_s" id="veh42" to="e_g_e" type="veh_passenger" /><trip depart="0.00" departLane="best" departSpeed="max" from="n_g_s" id="veh43" to="e_g_e" type="veh_passenger" /><trip depart="0.00" departLane="best" departSpeed="max" from="n_g_s" id="veh44" to="e_g_e" type="veh_passenger" /><trip depart="0.00" departLane="best" departSpeed="max" from="n_g_s" id="veh45" to="e_g_e" type="veh_passenger" /><trip depart="0.00" departLane="best" departSpeed="max" from="n_g_s" id="veh46" to="e_g_e" type="veh_passenger" /><trip depart="0.00" departLane="best" departSpeed="max" from="n_g_s" id="veh47" to="e_g_e" type="veh_passenger" /><trip depart="0.00" departLane="best" departSpeed="max" from="n_g_s" id="veh48" to="e_g_e" type="veh_passenger" /><trip depart="0.00" departLane="best" departSpeed="max" from="n_g_s" id="veh49" to="e_g_e" type="veh_passenger" /><trip depart="0.00" departLane="best" departSpeed="max" from="n_g_s" id="veh50" to="e_g_e" type="veh_passenger" /><trip depart="0.00" departLane="best" departSpeed="max" from="n_g_s" id="veh51" to="e_g_e" type="veh_passenger" /><trip depart="0.00" departLane="best" departSpeed="max" from="n_g_s" id="veh52" to="e_g_e" type="veh_passenger" /><trip depart="0.00" departLane="best" departSpeed="max" from="n_g_s" id="veh53" to="e_g_e" type="veh_passenger" /><trip depart="0.00" departLane="best" departSpeed="max" from="w_g_e" id="veh54" to="n_g_n" type="veh_passenger" /><trip depart="0.00" departLane="best" departSpeed="max" from="w_g_e" id="veh55" to="n_g_n" type="veh_passenger" /><trip depart="0.00" departLane="best" departSpeed="max" from="w_g_e" id="veh56" to="n_g_n" type="veh_passenger" /><trip depart="0.00" departLane="best" departSpeed="max" from="w_g_e" id="veh57" to="n_g_n" type="veh_passenger" /><trip depart="0.00" departLane="best" departSpeed="max" from="w_g_e" id="veh58" to="n_g_n" type="veh_passenger" /><trip depart="0.00" departLane="best" departSpeed="max" from="w_g_e" id="veh59" to="n_g_n" type="veh_passenger" /><trip depart="0.00" departLane="best" departSpeed="max" from="w_g_e" id="veh60" to="n_g_n" type="veh_passenger" /><trip depart="0.00" departLane="best" departSpeed="max" from="w_g_e" id="veh61" to="s_g_s" type="veh_passenger" /><trip depart="0.00" departLane="best" departSpeed="max" from="w_g_e" id="veh62" to="s_g_s" type="veh_passenger" /><trip depart="0.00" departLane="best" departSpeed="max" from="w_g_e" id="veh63" to="s_g_s" type="veh_passenger" /><trip depart="0.00" departLane="best" departSpeed="max" from="w_g_e" id="veh64" to="e_g_e" type="veh_passenger" /><trip depart="0.00" departLane="best" departSpeed="max" from="w_g_e" id="veh65" to="e_g_e" type="veh_passenger" /><trip depart="0.00" departLane="best" departSpeed="max" from="w_g_e" id="veh66" to="e_g_e" type="veh_passenger" /><trip depart="0.00" departLane="best" departSpeed="max" from="s_g_n" id="veh67" to="n_g_n" type="veh_passenger" /><trip depart="0.00" departLane="best" departSpeed="max" from="s_g_n" id="veh68" to="n_g_n" type="veh_passenger" /><trip depart="0.00" departLane="best" departSpeed="max" from="s_g_n" id="veh69" to="n_g_n" type="veh_passenger" /><trip depart="0.00" departLane="best" departSpeed="max" from="s_g_n" id="veh70" to="n_g_n" type="veh_passenger" /><trip depart="0.00" departLane="best" departSpeed="max" from="s_g_n" id="veh71" to="n_g_n" type="veh_passenger" /><trip depart="0.00" departLane="best" departSpeed="max" from="s_g_n" id="veh72" to="n_g_n" type="veh_passenger" /><trip depart="0.00" departLane="best" departSpeed="max" from="s_g_n" id="veh73" to="n_g_n" type="veh_passenger" /><trip depart="0.00" departLane="best" departSpeed="max" from="s_g_n" id="veh74" to="n_g_n" type="veh_passenger" /><trip depart="0.00" departLane="best" departSpeed="max" from="s_g_n" id="veh75" to="n_g_n" type="veh_passenger" /><trip depart="0.00" departLane="best" departSpeed="max" from="s_g_n" id="veh76" to="w_g_w" type="veh_passenger" /><trip depart="0.00" departLane="best" departSpeed="max" from="s_g_n" id="veh77" to="w_g_w" type="veh_passenger" /><trip depart="0.00" departLane="best" departSpeed="max" from="s_g_n" id="veh78" to="w_g_w" type="veh_passenger" /><trip depart="0.00" departLane="best" departSpeed="max" from="s_g_n" id="veh79" to="w_g_w" type="veh_passenger" /><trip depart="0.00" departLane="best" departSpeed="max" from="s_g_n" id="veh80" to="w_g_w" type="veh_passenger" /><trip depart="0.00" departLane="best" departSpeed="max" from="s_g_n" id="veh81" to="w_g_w" type="veh_passenger" /><trip depart="0.00" departLane="best" departSpeed="max" from="s_g_n" id="veh82" to="w_g_w" type="veh_passenger" /><trip depart="0.00" departLane="best" departSpeed="max" from="s_g_n" id="veh83" to="w_g_w" type="veh_passenger" /><trip depart="0.00" departLane="best" departSpeed="max" from="s_g_n" id="veh84" to="w_g_w" type="veh_passenger" /><trip depart="0.00" departLane="best" departSpeed="max" from="s_g_n" id="veh85" to="w_g_w" type="veh_passenger" /><trip depart="0.00" departLane="best" departSpeed="max" from="s_g_n" id="veh86" to="w_g_w" type="veh_passenger" /><trip depart="0.00" departLane="best" departSpeed="max" from="s_g_n" id="veh87" to="w_g_w" type="veh_passenger" /><trip depart="0.00" departLane="best" departSpeed="max" from="s_g_n" id="veh88" to="w_g_w" type="veh_passenger" /><trip depart="0.00" departLane="best" departSpeed="max" from="s_g_n" id="veh89" to="w_g_w" type="veh_passenger" /><trip depart="0.00" departLane="best" departSpeed="max" from="s_g_n" id="veh90" to="w_g_w" type="veh_passenger" /><trip depart="0.00" departLane="best" departSpeed="max" from="s_g_n" id="veh91" to="e_g_e" type="veh_passenger" /></routes>